C2332-P163
     RDKit          3D

 73 79  0  0  0  0  0  0  0  0999 V2000
    2.3537   -2.3819   28.6171 C   0  0  0  0  0  0  0  0  0  0  0  0
    3.2912   -2.5301   29.5641 C   0  0  0  0  0  0  0  0  0  0  0  0
    3.1329   -2.2931   31.0418 C   0  0  0  0  0  0  0  0  0  0  0  0
    1.7758   -2.4073   31.5394 N   0  0  0  0  0  0  0  0  0  0  0  0
    1.3809   -1.4357   32.5296 C   0  0  0  0  0  0  0  0  0  0  0  0
    1.0016   -0.1341   31.8596 C   0  0  0  0  0  0  0  0  0  0  0  0
    1.8457    0.9823   31.9161 C   0  0  0  0  0  0  0  0  0  0  0  0
    1.5613    2.1121   31.1538 C   0  0  0  0  0  0  0  0  0  0  0  0
    0.4306    2.0974   30.3591 C   0  0  0  0  0  0  0  0  0  0  0  0
   -0.4329    1.0614   30.3088 N   0  0  0  0  0  0  0  0  0  0  0  0
   -0.1237   -0.0283   31.0457 C   0  0  0  0  0  0  0  0  0  0  0  0
    0.2539   -2.0424   33.2515 N   0  0  0  0  0  0  0  0  0  0  0  0
   -0.0077   -3.3375   32.5879 N   0  0  0  0  0  0  0  0  0  0  0  0
    1.2211   -3.7055   31.8707 C   0  0  0  0  0  0  0  0  0  0  0  0
    0.9497   -4.4121   30.5289 C   0  0  0  0  0  0  0  0  0  0  0  0
    0.4547   -5.8316   30.4519 C   0  0  0  0  0  0  0  0  0  0  0  0
   -0.3669   -6.2862   31.6111 C   0  0  0  0  0  0  0  0  0  0  0  0
   -1.0947   -7.4795   31.1464 N   0  0  0  0  0  0  0  0  0  0  0  0
   -1.4094   -8.2237   32.3367 N   0  0  0  0  0  0  0  0  0  0  0  0
   -0.6377   -7.5832   33.4055 C   0  0  0  0  0  0  0  0  0  0  0  0
   -1.5474   -6.7134   34.2376 C   0  0  0  0  0  0  0  0  0  0  0  0
   -0.8789   -5.6038   35.0411 C   0  0  0  0  0  0  0  0  0  0  0  0
    0.6386   -5.7300   35.0854 C   0  0  0  0  0  0  0  0  0  0  0  0
    1.2035   -4.5110   35.8983 C   0  0  0  0  0  0  0  0  0  0  0  0
    2.1243   -5.0013   37.0265 C   0  0  0  0  0  0  0  0  0  0  0  0
    1.4131   -6.2056   37.6153 C   0  0  0  0  0  0  0  0  0  0  0  0
    2.0639   -7.0978   38.6258 C   0  0  0  0  0  0  0  0  0  0  0  0
    1.2324   -7.7689   39.5413 C   0  0  0  0  0  0  0  0  0  0  0  0
    1.7556   -8.6907   40.4426 C   0  0  0  0  0  0  0  0  0  0  0  0
    3.1193   -8.9555   40.4445 C   0  0  0  0  0  0  0  0  0  0  0  0
    3.9571   -8.2963   39.5470 C   0  0  0  0  0  0  0  0  0  0  0  0
    3.4353   -7.3697   38.6418 C   0  0  0  0  0  0  0  0  0  0  0  0
    1.0323   -7.1736   36.1706 S   0  0  0  0  0  0  0  0  0  0  0  0
    2.2208   -7.8322   35.6562 O   0  0  0  0  0  0  0  0  0  0  0  0
   -0.1782   -7.9226   36.4326 O   0  0  0  0  0  0  0  0  0  0  0  0
    1.1857   -5.9893   33.6315 C   0  0  0  0  0  0  0  0  0  0  0  0
    2.2951   -4.7341   32.9053 S   0  0  0  0  0  0  0  0  0  0  0  0
    0.3745   -6.8060   32.7245 N   0  0  0  0  0  0  0  0  0  0  0  0
    2.5969   -2.5592   27.5768 H   0  0  0  0  0  0  0  0  0  0  0  0
    1.3513   -2.0262   28.8373 H   0  0  0  0  0  0  0  0  0  0  0  0
    4.2902   -2.8266   29.2492 H   0  0  0  0  0  0  0  0  0  0  0  0
    3.8279   -2.9467   31.5787 H   0  0  0  0  0  0  0  0  0  0  0  0
    3.5305   -1.2845   31.2150 H   0  0  0  0  0  0  0  0  0  0  0  0
    2.1829   -1.2647   33.2607 H   0  0  0  0  0  0  0  0  0  0  0  0
    2.7507    0.9642   32.5177 H   0  0  0  0  0  0  0  0  0  0  0  0
    2.2153    2.9769   31.1626 H   0  0  0  0  0  0  0  0  0  0  0  0
    0.1761    2.9469   29.7297 H   0  0  0  0  0  0  0  0  0  0  0  0
   -0.8157   -0.8566   30.9284 H   0  0  0  0  0  0  0  0  0  0  0  0
    0.5536   -2.1915   34.2158 H   0  0  0  0  0  0  0  0  0  0  0  0
   -0.7082   -3.1537   31.8649 H   0  0  0  0  0  0  0  0  0  0  0  0
    1.8675   -4.4614   29.9399 H   0  0  0  0  0  0  0  0  0  0  0  0
    0.2458   -3.7971   29.9478 H   0  0  0  0  0  0  0  0  0  0  0  0
   -0.1497   -5.8851   29.5455 H   0  0  0  0  0  0  0  0  0  0  0  0
    1.2940   -6.5110   30.2775 H   0  0  0  0  0  0  0  0  0  0  0  0
   -1.0974   -5.5169   31.8796 H   0  0  0  0  0  0  0  0  0  0  0  0
   -1.9364   -7.1826   30.6657 H   0  0  0  0  0  0  0  0  0  0  0  0
   -1.0401   -9.1714   32.2462 H   0  0  0  0  0  0  0  0  0  0  0  0
   -0.2014   -8.3306   34.0462 H   0  0  0  0  0  0  0  0  0  0  0  0
   -2.1828   -7.3337   34.8775 H   0  0  0  0  0  0  0  0  0  0  0  0
   -2.1833   -6.2084   33.5315 H   0  0  0  0  0  0  0  0  0  0  0  0
   -1.1287   -4.6367   34.5932 H   0  0  0  0  0  0  0  0  0  0  0  0
   -1.3164   -5.5758   36.0476 H   0  0  0  0  0  0  0  0  0  0  0  0
    1.7290   -3.7710   35.2953 H   0  0  0  0  0  0  0  0  0  0  0  0
    0.3769   -3.9583   36.3659 H   0  0  0  0  0  0  0  0  0  0  0  0
    2.2863   -4.2200   37.7762 H   0  0  0  0  0  0  0  0  0  0  0  0
    3.1018   -5.2648   36.6059 H   0  0  0  0  0  0  0  0  0  0  0  0
    0.4501   -5.8615   38.0182 H   0  0  0  0  0  0  0  0  0  0  0  0
    0.1540   -7.6215   39.5305 H   0  0  0  0  0  0  0  0  0  0  0  0
    1.0927   -9.2360   41.1100 H   0  0  0  0  0  0  0  0  0  0  0  0
    3.5261   -9.6926   41.1316 H   0  0  0  0  0  0  0  0  0  0  0  0
    5.0211   -8.5191   39.5418 H   0  0  0  0  0  0  0  0  0  0  0  0
    4.1126   -6.9013   37.9328 H   0  0  0  0  0  0  0  0  0  0  0  0
    2.0029   -6.6917   33.7943 H   0  0  0  0  0  0  0  0  0  0  0  0
  1  2  2  0
  2  3  1  0
  3  4  1  0
  4  5  1  0
  5  6  1  0
  6  7  2  0
  7  8  1  0
  8  9  2  0
  9 10  1  0
 10 11  2  0
  5 12  1  0
 12 13  1  0
 13 14  1  0
 14 15  1  0
 15 16  1  0
 16 17  1  0
 17 18  1  0
 18 19  1  0
 19 20  1  0
 20 21  1  0
 21 22  1  0
 22 23  1  0
 23 24  1  0
 24 25  1  0
 25 26  1  0
 26 27  1  0
 27 28  2  0
 28 29  1  0
 29 30  2  0
 30 31  1  0
 31 32  2  0
 26 33  1  0
 33 34  2  0
 33 35  2  0
 23 36  1  0
 36 37  1  0
 36 38  1  0
 14  4  1  0
 38 17  1  0
 11  6  1  0
 37 14  1  0
 38 20  1  0
 33 23  1  0
 32 27  1  0
  1 39  1  0
  1 40  1  0
  2 41  1  0
  3 42  1  0
  3 43  1  0
  5 44  1  0
  7 45  1  0
  8 46  1  0
  9 47  1  0
 11 48  1  0
 12 49  1  0
 13 50  1  0
 15 51  1  0
 15 52  1  0
 16 53  1  0
 16 54  1  0
 17 55  1  0
 18 56  1  0
 19 57  1  0
 20 58  1  0
 21 59  1  0
 21 60  1  0
 22 61  1  0
 22 62  1  0
 24 63  1  0
 24 64  1  0
 25 65  1  0
 25 66  1  0
 26 67  1  0
 28 68  1  0
 29 69  1  0
 30 70  1  0
 31 71  1  0
 32 72  1  0
 36 73  1  0
M  END
>  <Energy>  (1) 
59.561536913377488

>  <compound_id>  (1) 
2332

>  <target_id>  (1) 
1

>  <reference_id>  (1) 
163

>  <inspiration_ids>  (1) 
[163, 145]

>  <energy_score>  (1) 
-100.8467643039106

>  <distance_score>  (1) 
1.1611722092628955

>  <path>  (1) 
/opt/xchem-fragalysis-2/maxwin/BulkDock/SCRATCH/505736/C2332-P163/C2332-P163.minimised.mol

>  <scratch_subdir>  (1) 
/opt/xchem-fragalysis-2/maxwin/BulkDock/SCRATCH/505736/C2332-P163

>  <fragmenstein_runtime>  (1) 
6.577725648880005

>  <fragmenstein_outcome>  (1) 
too moved

>  <fragmenstein_mode>  (1) 
expansion

>  <fragmenstein_error>  (1) 


$$$$
C2332-P145
     RDKit          3D

 73 79  0  0  0  0  0  0  0  0999 V2000
    3.0895   -3.5654   28.8693 C   0  0  0  0  0  0  0  0  0  0  0  0
    3.3688   -3.0449   30.0757 C   0  0  0  0  0  0  0  0  0  0  0  0
    2.5863   -1.9195   30.6965 C   0  0  0  0  0  0  0  0  0  0  0  0
    2.0108   -2.1670   32.0162 N   0  0  0  0  0  0  0  0  0  0  0  0
    1.3953   -0.9975   32.6427 C   0  0  0  0  0  0  0  0  0  0  0  0
    0.8124    0.0452   31.7119 C   0  0  0  0  0  0  0  0  0  0  0  0
    1.5792    1.1631   31.3465 C   0  0  0  0  0  0  0  0  0  0  0  0
    1.1230    2.0311   30.3620 C   0  0  0  0  0  0  0  0  0  0  0  0
   -0.1000    1.7629   29.7766 C   0  0  0  0  0  0  0  0  0  0  0  0
   -0.9007    0.7400   30.1452 N   0  0  0  0  0  0  0  0  0  0  0  0
   -0.4244   -0.0990   31.0922 C   0  0  0  0  0  0  0  0  0  0  0  0
    0.4065   -1.5378   33.5849 N   0  0  0  0  0  0  0  0  0  0  0  0
   -0.0139   -2.7966   32.9744 N   0  0  0  0  0  0  0  0  0  0  0  0
    1.1510   -3.3272   32.2686 C   0  0  0  0  0  0  0  0  0  0  0  0
    0.7870   -4.0840   30.9909 C   0  0  0  0  0  0  0  0  0  0  0  0
   -0.3716   -5.0294   30.9329 C   0  0  0  0  0  0  0  0  0  0  0  0
   -0.6872   -5.8487   32.1515 C   0  0  0  0  0  0  0  0  0  0  0  0
   -1.4532   -7.0165   31.6255 N   0  0  0  0  0  0  0  0  0  0  0  0
   -1.0998   -8.1413   32.4422 N   0  0  0  0  0  0  0  0  0  0  0  0
   -0.3985   -7.5487   33.5559 C   0  0  0  0  0  0  0  0  0  0  0  0
   -1.3635   -7.1421   34.6606 C   0  0  0  0  0  0  0  0  0  0  0  0
   -0.8828   -5.9286   35.4569 C   0  0  0  0  0  0  0  0  0  0  0  0
    0.6312   -5.7438   35.4279 C   0  0  0  0  0  0  0  0  0  0  0  0
    0.9871   -4.5014   36.3278 C   0  0  0  0  0  0  0  0  0  0  0  0
    1.9605   -4.9163   37.4471 C   0  0  0  0  0  0  0  0  0  0  0  0
    1.4606   -6.2749   37.8959 C   0  0  0  0  0  0  0  0  0  0  0  0
    2.1719   -7.1387   38.8814 C   0  0  0  0  0  0  0  0  0  0  0  0
    1.3849   -7.9103   39.7580 C   0  0  0  0  0  0  0  0  0  0  0  0
    1.9669   -8.8422   40.6083 C   0  0  0  0  0  0  0  0  0  0  0  0
    3.3451   -9.0127   40.5980 C   0  0  0  0  0  0  0  0  0  0  0  0
    4.1379   -8.2482   39.7428 C   0  0  0  0  0  0  0  0  0  0  0  0
    3.5574   -7.3102   38.8885 C   0  0  0  0  0  0  0  0  0  0  0  0
    1.3363   -7.1709   36.3649 S   0  0  0  0  0  0  0  0  0  0  0  0
    2.6359   -7.4995   35.8156 O   0  0  0  0  0  0  0  0  0  0  0  0
    0.3321   -8.1988   36.5264 O   0  0  0  0  0  0  0  0  0  0  0  0
    1.1348   -5.7509   33.9384 C   0  0  0  0  0  0  0  0  0  0  0  0
    2.1615   -4.3607   33.3989 S   0  0  0  0  0  0  0  0  0  0  0  0
    0.3361   -6.4566   32.9405 N   0  0  0  0  0  0  0  0  0  0  0  0
    2.2697   -3.1956   28.2593 H   0  0  0  0  0  0  0  0  0  0  0  0
    3.6908   -4.3725   28.4626 H   0  0  0  0  0  0  0  0  0  0  0  0
    4.2068   -3.4347   30.6488 H   0  0  0  0  0  0  0  0  0  0  0  0
    3.3039   -1.0932   30.7873 H   0  0  0  0  0  0  0  0  0  0  0  0
    1.8242   -1.5877   29.9809 H   0  0  0  0  0  0  0  0  0  0  0  0
    2.1647   -0.4964   33.2454 H   0  0  0  0  0  0  0  0  0  0  0  0
    2.5569    1.3344   31.7910 H   0  0  0  0  0  0  0  0  0  0  0  0
    1.7140    2.8811   30.0395 H   0  0  0  0  0  0  0  0  0  0  0  0
   -0.4892    2.3897   28.9775 H   0  0  0  0  0  0  0  0  0  0  0  0
   -1.0782   -0.9362   31.3178 H   0  0  0  0  0  0  0  0  0  0  0  0
    0.9354   -1.7234   34.4417 H   0  0  0  0  0  0  0  0  0  0  0  0
   -0.3428   -3.4554   33.6731 H   0  0  0  0  0  0  0  0  0  0  0  0
    1.6389   -4.6851   30.6704 H   0  0  0  0  0  0  0  0  0  0  0  0
    0.5696   -3.3684   30.1876 H   0  0  0  0  0  0  0  0  0  0  0  0
   -1.2544   -4.4223   30.7002 H   0  0  0  0  0  0  0  0  0  0  0  0
   -0.2120   -5.6710   30.0540 H   0  0  0  0  0  0  0  0  0  0  0  0
   -1.3302   -5.2513   32.7966 H   0  0  0  0  0  0  0  0  0  0  0  0
   -2.4400   -6.8012   31.7353 H   0  0  0  0  0  0  0  0  0  0  0  0
   -1.8860   -8.7130   32.7611 H   0  0  0  0  0  0  0  0  0  0  0  0
    0.3104   -8.2255   33.9906 H   0  0  0  0  0  0  0  0  0  0  0  0
   -1.5611   -8.0017   35.3080 H   0  0  0  0  0  0  0  0  0  0  0  0
   -2.3338   -6.9434   34.2483 H   0  0  0  0  0  0  0  0  0  0  0  0
   -1.3031   -5.0120   35.0535 H   0  0  0  0  0  0  0  0  0  0  0  0
   -1.2465   -5.9980   36.4837 H   0  0  0  0  0  0  0  0  0  0  0  0
    1.3883   -3.6443   35.7880 H   0  0  0  0  0  0  0  0  0  0  0  0
    0.0764   -4.1180   36.8091 H   0  0  0  0  0  0  0  0  0  0  0  0
    1.9564   -4.1902   38.2664 H   0  0  0  0  0  0  0  0  0  0  0  0
    2.9814   -4.9652   37.0508 H   0  0  0  0  0  0  0  0  0  0  0  0
    0.4284   -6.1379   38.2493 H   0  0  0  0  0  0  0  0  0  0  0  0
    0.2993   -7.8353   39.7540 H   0  0  0  0  0  0  0  0  0  0  0  0
    1.3456   -9.4656   41.2470 H   0  0  0  0  0  0  0  0  0  0  0  0
    3.8020   -9.7577   41.2446 H   0  0  0  0  0  0  0  0  0  0  0  0
    5.2146   -8.3991   39.7302 H   0  0  0  0  0  0  0  0  0  0  0  0
    4.1985   -6.7593   38.2046 H   0  0  0  0  0  0  0  0  0  0  0  0
    1.9789   -6.4357   33.9792 H   0  0  0  0  0  0  0  0  0  0  0  0
  1  2  2  0
  2  3  1  0
  3  4  1  0
  4  5  1  0
  5  6  1  0
  6  7  2  0
  7  8  1  0
  8  9  2  0
  9 10  1  0
 10 11  2  0
  5 12  1  0
 12 13  1  0
 13 14  1  0
 14 15  1  0
 15 16  1  0
 16 17  1  0
 17 18  1  0
 18 19  1  0
 19 20  1  0
 20 21  1  0
 21 22  1  0
 22 23  1  0
 23 24  1  0
 24 25  1  0
 25 26  1  0
 26 27  1  0
 27 28  2  0
 28 29  1  0
 29 30  2  0
 30 31  1  0
 31 32  2  0
 26 33  1  0
 33 34  2  0
 33 35  2  0
 23 36  1  0
 36 37  1  0
 36 38  1  0
 14  4  1  0
 38 17  1  0
 11  6  1  0
 37 14  1  0
 38 20  1  0
 33 23  1  0
 32 27  1  0
  1 39  1  0
  1 40  1  0
  2 41  1  0
  3 42  1  0
  3 43  1  0
  5 44  1  0
  7 45  1  0
  8 46  1  0
  9 47  1  0
 11 48  1  0
 12 49  1  0
 13 50  1  0
 15 51  1  0
 15 52  1  0
 16 53  1  0
 16 54  1  0
 17 55  1  0
 18 56  1  0
 19 57  1  0
 20 58  1  0
 21 59  1  0
 21 60  1  0
 22 61  1  0
 22 62  1  0
 24 63  1  0
 24 64  1  0
 25 65  1  0
 25 66  1  0
 26 67  1  0
 28 68  1  0
 29 69  1  0
 30 70  1  0
 31 71  1  0
 32 72  1  0
 36 73  1  0
M  END
>  <Energy>  (2) 
80.550625080954831

>  <compound_id>  (2) 
2332

>  <target_id>  (2) 
1

>  <reference_id>  (2) 
145

>  <inspiration_ids>  (2) 
[163, 145]

>  <energy_score>  (2) 
-79.85767613633766

>  <distance_score>  (2) 
1.200070024280319

>  <path>  (2) 
/opt/xchem-fragalysis-2/maxwin/BulkDock/SCRATCH/505736/C2332-P145/C2332-P145.minimised.mol

>  <scratch_subdir>  (2) 
/opt/xchem-fragalysis-2/maxwin/BulkDock/SCRATCH/505736/C2332-P145

>  <fragmenstein_runtime>  (2) 
5.545934677124023

>  <fragmenstein_outcome>  (2) 
too moved

>  <fragmenstein_mode>  (2) 
expansion

>  <fragmenstein_error>  (2) 


$$$$
C2333-P163
     RDKit          3D

 55 61  0  0  0  0  0  0  0  0999 V2000
    2.3060   -3.0543   29.6404 C   0  0  0  0  0  0  0  0  0  0  0  0
    0.9835   -3.3232   29.5276 C   0  0  0  0  0  0  0  0  0  0  0  0
    0.1709   -2.2470   29.0142 C   0  0  0  0  0  0  0  0  0  0  0  0
    0.4706   -0.9789   28.7734 N   0  0  0  0  0  0  0  0  0  0  0  0
   -0.6822   -0.4410   28.2252 C   0  0  0  0  0  0  0  0  0  0  0  0
   -0.7771    0.9222   27.6940 C   0  0  0  0  0  0  0  0  0  0  0  0
    0.2628    1.8415   27.8505 C   0  0  0  0  0  0  0  0  0  0  0  0
    0.1378    3.1540   27.3737 C   0  0  0  0  0  0  0  0  0  0  0  0
   -1.0227    3.5594   26.7157 C   0  0  0  0  0  0  0  0  0  0  0  0
   -2.0494    2.6474   26.5116 C   0  0  0  0  0  0  0  0  0  0  0  0
   -1.9140    1.3416   26.9883 C   0  0  0  0  0  0  0  0  0  0  0  0
   -1.7068   -1.3026   28.2422 N   0  0  0  0  0  0  0  0  0  0  0  0
   -1.1128   -2.4542   28.5831 N   0  0  0  0  0  0  0  0  0  0  0  0
    0.4879   -4.4390   30.2418 N   0  0  0  0  0  0  0  0  0  0  0  0
    1.3456   -4.7486   31.7852 S   0  0  0  0  0  4  0  0  0  0  0  0
    0.4298   -5.8055   32.7772 C   0  0  0  0  0  0  0  0  0  0  0  0
    0.4760   -5.6987   34.1208 C   0  0  0  0  0  0  0  0  0  0  0  0
   -0.3711   -6.5558   34.9386 C   0  0  0  0  0  0  0  0  0  0  0  0
   -1.1878   -7.4647   34.3781 C   0  0  0  0  0  0  0  0  0  0  0  0
   -1.1878   -7.6287   32.9673 C   0  0  0  0  0  0  0  0  0  0  0  0
   -1.8405   -8.4295   32.1542 N   0  0  0  0  0  0  0  0  0  0  0  0
   -1.3957   -8.2031   30.8777 N   0  0  0  0  0  0  0  0  0  0  0  0
   -0.4844   -7.2649   30.9429 C   0  0  0  0  0  0  0  0  0  0  0  0
   -0.3549   -6.8118   32.2255 N   0  0  0  0  0  0  0  0  0  0  0  0
    1.4684   -3.1673   32.5190 C   0  0  0  0  0  0  0  0  0  0  0  0
    0.8906   -2.8216   33.6450 N   0  0  0  0  0  0  0  0  0  0  0  0
    0.8526   -1.4580   33.6930 N   0  0  0  0  0  0  0  0  0  0  0  0
    1.4059   -0.9959   32.5902 C   0  0  0  0  0  0  0  0  0  0  0  0
    1.2880    0.3490   32.0919 C   0  0  0  0  0  0  0  0  0  0  0  0
    2.3646    1.2308   32.0368 C   0  0  0  0  0  0  0  0  0  0  0  0
    2.1794    2.4988   31.4943 C   0  0  0  0  0  0  0  0  0  0  0  0
    0.9198    2.8371   31.0393 C   0  0  0  0  0  0  0  0  0  0  0  0
   -0.1321    1.9976   31.0882 N   0  0  0  0  0  0  0  0  0  0  0  0
    0.0635    0.7749   31.6083 C   0  0  0  0  0  0  0  0  0  0  0  0
    1.9522   -2.0422   31.8913 N   0  0  0  0  0  0  0  0  0  0  0  0
    2.6968   -1.9686   30.6283 C   0  0  0  0  0  0  0  0  0  0  0  0
    2.9884   -3.8958   29.7626 H   0  0  0  0  0  0  0  0  0  0  0  0
    1.1700    1.5455   28.3700 H   0  0  0  0  0  0  0  0  0  0  0  0
    0.9441    3.8648   27.5307 H   0  0  0  0  0  0  0  0  0  0  0  0
   -1.1300    4.5828   26.3662 H   0  0  0  0  0  0  0  0  0  0  0  0
   -2.9602    2.9477   25.9985 H   0  0  0  0  0  0  0  0  0  0  0  0
   -2.7116    0.6385   26.7971 H   0  0  0  0  0  0  0  0  0  0  0  0
   -1.6379   -3.3151   28.4504 H   0  0  0  0  0  0  0  0  0  0  0  0
   -0.5113   -4.3123   30.4094 H   0  0  0  0  0  0  0  0  0  0  0  0
    2.5730   -5.2621   31.5394 H   0  0  0  0  0  0  0  0  0  0  0  0
    1.0822   -4.9728   34.6533 H   0  0  0  0  0  0  0  0  0  0  0  0
   -0.3502   -6.4120   36.0158 H   0  0  0  0  0  0  0  0  0  0  0  0
   -1.8320   -8.0926   34.9799 H   0  0  0  0  0  0  0  0  0  0  0  0
    0.0990   -6.8995   30.1147 H   0  0  0  0  0  0  0  0  0  0  0  0
    3.3412    0.9438   32.4160 H   0  0  0  0  0  0  0  0  0  0  0  0
    2.9946    3.2114   31.4387 H   0  0  0  0  0  0  0  0  0  0  0  0
    0.7123    3.8160   30.6137 H   0  0  0  0  0  0  0  0  0  0  0  0
   -0.8108    0.1297   31.6109 H   0  0  0  0  0  0  0  0  0  0  0  0
    3.7483   -2.0973   30.9129 H   0  0  0  0  0  0  0  0  0  0  0  0
    2.5992   -0.9759   30.1841 H   0  0  0  0  0  0  0  0  0  0  0  0
  1  2  2  0
  2  3  1  0
  3  4  2  0
  4  5  1  0
  5  6  1  0
  6  7  2  0
  7  8  1  0
  8  9  2  0
  9 10  1  0
 10 11  2  0
  5 12  2  0
 12 13  1  0
  2 14  1  0
 14 15  1  0
 15 16  1  0
 16 17  2  0
 17 18  1  0
 18 19  2  0
 19 20  1  0
 20 21  2  0
 21 22  1  0
 22 23  2  0
 23 24  1  0
 15 25  1  0
 25 26  2  0
 26 27  1  0
 27 28  2  0
 28 29  1  0
 29 30  2  0
 30 31  1  0
 31 32  2  0
 32 33  1  0
 33 34  2  0
 28 35  1  0
 35 36  1  0
 36  1  1  0
 13  3  1  0
 24 16  1  0
 35 25  1  0
 11  6  1  0
 24 20  1  0
 34 29  1  0
  1 37  1  0
  7 38  1  0
  8 39  1  0
  9 40  1  0
 10 41  1  0
 11 42  1  0
 13 43  1  0
 14 44  1  0
 15 45  1  0
 17 46  1  0
 18 47  1  0
 19 48  1  0
 23 49  1  0
 30 50  1  0
 31 51  1  0
 32 52  1  0
 34 53  1  0
 36 54  1  0
 36 55  1  0
M  END
>  <Energy>  (3) 
137.80838537663286

>  <compound_id>  (3) 
2333

>  <target_id>  (3) 
1

>  <reference_id>  (3) 
163

>  <inspiration_ids>  (3) 
[163, 147]

>  <energy_score>  (3) 
-25.834805103211806

>  <distance_score>  (3) 
0.7096430598538968

>  <path>  (3) 
/opt/xchem-fragalysis-2/maxwin/BulkDock/SCRATCH/505736/C2333-P163/C2333-P163.minimised.mol

>  <scratch_subdir>  (3) 
/opt/xchem-fragalysis-2/maxwin/BulkDock/SCRATCH/505736/C2333-P163

>  <fragmenstein_runtime>  (3) 
4.364386796951294

>  <fragmenstein_outcome>  (3) 
acceptable

>  <fragmenstein_mode>  (3) 
expansion

>  <fragmenstein_error>  (3) 


$$$$
C2333-P147
     RDKit          3D

 55 61  0  0  0  0  0  0  0  0999 V2000
    2.2519   -3.0379   29.6458 C   0  0  0  0  0  0  0  0  0  0  0  0
    0.9251   -3.2901   29.5479 C   0  0  0  0  0  0  0  0  0  0  0  0
    0.1183   -2.2067   29.0452 C   0  0  0  0  0  0  0  0  0  0  0  0
    0.4205   -0.9394   28.8090 N   0  0  0  0  0  0  0  0  0  0  0  0
   -0.7324   -0.3977   28.2628 C   0  0  0  0  0  0  0  0  0  0  0  0
   -0.8212    0.9645   27.7290 C   0  0  0  0  0  0  0  0  0  0  0  0
    0.2345    1.8699   27.8615 C   0  0  0  0  0  0  0  0  0  0  0  0
    0.1223    3.1792   27.3735 C   0  0  0  0  0  0  0  0  0  0  0  0
   -1.0413    3.5950   26.7279 C   0  0  0  0  0  0  0  0  0  0  0  0
   -2.0859    2.6977   26.5516 C   0  0  0  0  0  0  0  0  0  0  0  0
   -1.9646    1.3955   27.0416 C   0  0  0  0  0  0  0  0  0  0  0  0
   -1.7594   -1.2578   28.2795 N   0  0  0  0  0  0  0  0  0  0  0  0
   -1.1660   -2.4098   28.6158 N   0  0  0  0  0  0  0  0  0  0  0  0
    0.4192   -4.3953   30.2692 N   0  0  0  0  0  0  0  0  0  0  0  0
    1.2872   -4.7156   31.7983 S   0  0  0  0  0  4  0  0  0  0  0  0
    0.3787   -5.7787   32.7859 C   0  0  0  0  0  0  0  0  0  0  0  0
    0.4174   -5.6713   34.1294 C   0  0  0  0  0  0  0  0  0  0  0  0
   -0.4195   -6.5411   34.9432 C   0  0  0  0  0  0  0  0  0  0  0  0
   -1.2152   -7.4659   34.3789 C   0  0  0  0  0  0  0  0  0  0  0  0
   -1.2040   -7.6317   32.9683 C   0  0  0  0  0  0  0  0  0  0  0  0
   -1.8336   -8.4496   32.1548 N   0  0  0  0  0  0  0  0  0  0  0  0
   -1.3990   -8.2081   30.8779 N   0  0  0  0  0  0  0  0  0  0  0  0
   -0.5154   -7.2433   30.9419 C   0  0  0  0  0  0  0  0  0  0  0  0
   -0.3879   -6.7964   32.2282 N   0  0  0  0  0  0  0  0  0  0  0  0
    1.4366   -3.1411   32.5347 C   0  0  0  0  0  0  0  0  0  0  0  0
    0.8734   -2.7877   33.6653 N   0  0  0  0  0  0  0  0  0  0  0  0
    0.8623   -1.4236   33.7164 N   0  0  0  0  0  0  0  0  0  0  0  0
    1.4165   -0.9699   32.6106 C   0  0  0  0  0  0  0  0  0  0  0  0
    1.3204    0.3766   32.1131 C   0  0  0  0  0  0  0  0  0  0  0  0
    2.4099    1.2422   32.0586 C   0  0  0  0  0  0  0  0  0  0  0  0
    2.2450    2.5114   31.5118 C   0  0  0  0  0  0  0  0  0  0  0  0
    0.9923    2.8674   31.0518 C   0  0  0  0  0  0  0  0  0  0  0  0
   -0.0701    2.0429   31.1004 N   0  0  0  0  0  0  0  0  0  0  0  0
    0.1046    0.8189   31.6244 C   0  0  0  0  0  0  0  0  0  0  0  0
    1.9357   -2.0245   31.9042 N   0  0  0  0  0  0  0  0  0  0  0  0
    2.6685   -1.9611   30.6333 C   0  0  0  0  0  0  0  0  0  0  0  0
    2.9243   -3.8889   29.7576 H   0  0  0  0  0  0  0  0  0  0  0  0
    1.1459    1.5644   28.3677 H   0  0  0  0  0  0  0  0  0  0  0  0
    0.9422    3.8784   27.5092 H   0  0  0  0  0  0  0  0  0  0  0  0
   -1.1371    4.6149   26.3651 H   0  0  0  0  0  0  0  0  0  0  0  0
   -2.9990    3.0062   26.0479 H   0  0  0  0  0  0  0  0  0  0  0  0
   -2.7788    0.7060   26.8738 H   0  0  0  0  0  0  0  0  0  0  0  0
   -1.6883   -3.2706   28.4767 H   0  0  0  0  0  0  0  0  0  0  0  0
   -0.5744   -4.2491   30.4521 H   0  0  0  0  0  0  0  0  0  0  0  0
    2.5077   -5.2291   31.5369 H   0  0  0  0  0  0  0  0  0  0  0  0
    1.0123   -4.9386   34.6652 H   0  0  0  0  0  0  0  0  0  0  0  0
   -0.4062   -6.3963   36.0205 H   0  0  0  0  0  0  0  0  0  0  0  0
   -1.8510   -8.1041   34.9786 H   0  0  0  0  0  0  0  0  0  0  0  0
    0.0455   -6.8551   30.1073 H   0  0  0  0  0  0  0  0  0  0  0  0
    3.3810    0.9415   32.4413 H   0  0  0  0  0  0  0  0  0  0  0  0
    3.0707    3.2119   31.4577 H   0  0  0  0  0  0  0  0  0  0  0  0
    0.7984    3.8479   30.6239 H   0  0  0  0  0  0  0  0  0  0  0  0
   -0.7792    0.1870   31.6249 H   0  0  0  0  0  0  0  0  0  0  0  0
    3.7206   -2.1063   30.9072 H   0  0  0  0  0  0  0  0  0  0  0  0
    2.5812   -0.9665   30.1912 H   0  0  0  0  0  0  0  0  0  0  0  0
  1  2  2  0
  2  3  1  0
  3  4  2  0
  4  5  1  0
  5  6  1  0
  6  7  2  0
  7  8  1  0
  8  9  2  0
  9 10  1  0
 10 11  2  0
  5 12  2  0
 12 13  1  0
  2 14  1  0
 14 15  1  0
 15 16  1  0
 16 17  2  0
 17 18  1  0
 18 19  2  0
 19 20  1  0
 20 21  2  0
 21 22  1  0
 22 23  2  0
 23 24  1  0
 15 25  1  0
 25 26  2  0
 26 27  1  0
 27 28  2  0
 28 29  1  0
 29 30  2  0
 30 31  1  0
 31 32  2  0
 32 33  1  0
 33 34  2  0
 28 35  1  0
 35 36  1  0
 36  1  1  0
 13  3  1  0
 24 16  1  0
 35 25  1  0
 11  6  1  0
 24 20  1  0
 34 29  1  0
  1 37  1  0
  7 38  1  0
  8 39  1  0
  9 40  1  0
 10 41  1  0
 11 42  1  0
 13 43  1  0
 14 44  1  0
 15 45  1  0
 17 46  1  0
 18 47  1  0
 19 48  1  0
 23 49  1  0
 30 50  1  0
 31 51  1  0
 32 52  1  0
 34 53  1  0
 36 54  1  0
 36 55  1  0
M  END
>  <Energy>  (4) 
137.42159194096851

>  <compound_id>  (4) 
2333

>  <target_id>  (4) 
1

>  <reference_id>  (4) 
147

>  <inspiration_ids>  (4) 
[163, 147]

>  <energy_score>  (4) 
-26.221598538876094

>  <distance_score>  (4) 
0.7193275429388948

>  <path>  (4) 
/opt/xchem-fragalysis-2/maxwin/BulkDock/SCRATCH/505736/C2333-P147/C2333-P147.minimised.mol

>  <scratch_subdir>  (4) 
/opt/xchem-fragalysis-2/maxwin/BulkDock/SCRATCH/505736/C2333-P147

>  <fragmenstein_runtime>  (4) 
3.231740713119507

>  <fragmenstein_outcome>  (4) 
acceptable

>  <fragmenstein_mode>  (4) 
expansion

>  <fragmenstein_error>  (4) 


$$$$
C2334-P163
     RDKit          3D

 57 63  0  0  0  0  0  0  0  0999 V2000
    0.8100   -3.0263   29.1919 C   0  0  0  0  0  0  0  0  0  0  0  0
    2.0828   -2.7725   29.5263 C   0  0  0  0  0  0  0  0  0  0  0  0
    2.6599   -2.5866   30.9014 C   0  0  0  0  0  0  0  0  0  0  0  0
    1.7106   -2.5130   32.0018 N   0  0  0  0  0  0  0  0  0  0  0  0
    1.1655   -1.3320   32.4731 C   0  0  0  0  0  0  0  0  0  0  0  0
    0.9985   -0.1102   31.7103 C   0  0  0  0  0  0  0  0  0  0  0  0
    1.8999    0.9486   31.8011 C   0  0  0  0  0  0  0  0  0  0  0  0
    1.6930    2.0920   31.0305 C   0  0  0  0  0  0  0  0  0  0  0  0
    0.5828    2.1395   30.2032 C   0  0  0  0  0  0  0  0  0  0  0  0
   -0.3226    1.1426   30.1144 N   0  0  0  0  0  0  0  0  0  0  0  0
   -0.0993    0.0453   30.8696 C   0  0  0  0  0  0  0  0  0  0  0  0
    0.7780   -1.5249   33.7136 N   0  0  0  0  0  0  0  0  0  0  0  0
    0.8810   -2.8559   33.9729 N   0  0  0  0  0  0  0  0  0  0  0  0
    1.3293   -3.4931   32.9043 C   0  0  0  0  0  0  0  0  0  0  0  0
    1.1454   -4.8838   32.5739 C   0  0  0  0  0  0  0  0  0  0  0  0
    1.3149   -5.4503   31.2242 C   0  0  0  0  0  0  0  0  0  0  0  0
    0.5601   -6.4441   30.7325 C   0  0  0  0  0  0  0  0  0  0  0  0
   -0.3644   -7.0668   31.5809 C   0  0  0  0  0  0  0  0  0  0  0  0
   -1.2683   -8.0013   31.4052 N   0  0  0  0  0  0  0  0  0  0  0  0
   -1.7907   -8.2926   32.6446 N   0  0  0  0  0  0  0  0  0  0  0  0
   -1.1793   -7.5418   33.5351 C   0  0  0  0  0  0  0  0  0  0  0  0
   -0.2917   -6.7171   32.9092 N   0  0  0  0  0  0  0  0  0  0  0  0
    0.4802   -5.6819   33.4668 C   0  0  0  0  0  0  0  0  0  0  0  0
    0.4132   -5.6016   35.0048 C   0  0  0  0  0  0  0  0  0  0  0  0
   -0.0151   -6.9831   35.5997 C   0  0  0  0  0  0  0  0  0  0  0  0
   -1.3345   -7.4482   34.9991 C   0  0  0  0  0  0  0  0  0  0  0  0
   -0.4802   -4.5779   35.5521 N   0  0  0  0  0  0  0  0  0  0  0  0
    0.1231   -4.2555   36.8624 N   0  0  0  0  0  0  0  0  0  0  0  0
    1.5052   -4.7347   36.7882 C   0  0  0  0  0  0  0  0  0  0  0  0
    2.5164   -3.6552   36.9676 C   0  0  0  0  0  0  0  0  0  0  0  0
    3.5446   -3.5344   37.8863 C   0  0  0  0  0  0  0  0  0  0  0  0
    4.2126   -2.3123   37.6345 C   0  0  0  0  0  0  0  0  0  0  0  0
    3.5800   -1.7140   36.5701 C   0  0  0  0  0  0  0  0  0  0  0  0
    2.5566   -2.5326   36.1714 N   0  0  0  0  0  0  0  0  0  0  0  0
    1.7260   -5.3286   35.5048 O   0  0  0  0  0  0  0  0  0  0  0  0
    0.0069   -3.1330   29.9141 H   0  0  0  0  0  0  0  0  0  0  0  0
    0.5089   -3.0951   28.1513 H   0  0  0  0  0  0  0  0  0  0  0  0
    2.7979   -2.6556   28.7120 H   0  0  0  0  0  0  0  0  0  0  0  0
    3.3778   -3.3814   31.1311 H   0  0  0  0  0  0  0  0  0  0  0  0
    3.2395   -1.6556   30.9158 H   0  0  0  0  0  0  0  0  0  0  0  0
    2.7580    0.8941   32.4657 H   0  0  0  0  0  0  0  0  0  0  0  0
    2.3785    2.9315   31.0766 H   0  0  0  0  0  0  0  0  0  0  0  0
    0.3780    3.0093   29.5828 H   0  0  0  0  0  0  0  0  0  0  0  0
   -0.8550   -0.7296   30.7697 H   0  0  0  0  0  0  0  0  0  0  0  0
    2.1247   -5.1000   30.6014 H   0  0  0  0  0  0  0  0  0  0  0  0
    0.7257   -6.8472   29.7466 H   0  0  0  0  0  0  0  0  0  0  0  0
    0.7784   -7.7202   35.4089 H   0  0  0  0  0  0  0  0  0  0  0  0
   -0.1084   -6.9492   36.6927 H   0  0  0  0  0  0  0  0  0  0  0  0
   -1.6369   -8.3921   35.4478 H   0  0  0  0  0  0  0  0  0  0  0  0
   -2.1172   -6.7293   35.2344 H   0  0  0  0  0  0  0  0  0  0  0  0
   -0.3976   -3.7521   34.9418 H   0  0  0  0  0  0  0  0  0  0  0  0
    0.1119   -3.2518   37.0538 H   0  0  0  0  0  0  0  0  0  0  0  0
    1.6568   -5.5091   37.5496 H   0  0  0  0  0  0  0  0  0  0  0  0
    3.7847   -4.2520   38.6609 H   0  0  0  0  0  0  0  0  0  0  0  0
    5.0598   -1.9110   38.1754 H   0  0  0  0  0  0  0  0  0  0  0  0
    3.7623   -0.7764   36.0633 H   0  0  0  0  0  0  0  0  0  0  0  0
    1.9149   -2.3464   35.4032 H   0  0  0  0  0  0  0  0  0  0  0  0
  1  2  2  0
  2  3  1  0
  3  4  1  0
  4  5  1  0
  5  6  1  0
  6  7  2  0
  7  8  1  0
  8  9  2  0
  9 10  1  0
 10 11  2  0
  5 12  2  0
 12 13  1  0
 13 14  2  0
 14 15  1  0
 15 16  1  0
 16 17  2  0
 17 18  1  0
 18 19  2  0
 19 20  1  0
 20 21  2  0
 21 22  1  0
 22 23  1  0
 23 24  1  0
 24 25  1  0
 25 26  1  0
 24 27  1  0
 27 28  1  0
 28 29  1  0
 29 30  1  0
 30 31  2  0
 31 32  1  0
 32 33  2  0
 33 34  1  0
 29 35  1  0
 14  4  1  0
 23 15  2  0
 35 24  1  0
 11  6  1  0
 22 18  1  0
 34 30  1  0
 26 21  1  0
  1 36  1  0
  1 37  1  0
  2 38  1  0
  3 39  1  0
  3 40  1  0
  7 41  1  0
  8 42  1  0
  9 43  1  0
 11 44  1  0
 16 45  1  0
 17 46  1  0
 25 47  1  0
 25 48  1  0
 26 49  1  0
 26 50  1  0
 27 51  1  0
 28 52  1  0
 29 53  1  0
 31 54  1  0
 32 55  1  0
 33 56  1  0
 34 57  1  0
M  END
>  <Energy>  (5) 
73.206629211259724

>  <compound_id>  (5) 
2334

>  <target_id>  (5) 
1

>  <reference_id>  (5) 
163

>  <inspiration_ids>  (5) 
[163, 149]

>  <energy_score>  (5) 
-57.594586695222034

>  <distance_score>  (5) 
0.9397282483489315

>  <path>  (5) 
/opt/xchem-fragalysis-2/maxwin/BulkDock/SCRATCH/505736/C2334-P163/C2334-P163.minimised.mol

>  <scratch_subdir>  (5) 
/opt/xchem-fragalysis-2/maxwin/BulkDock/SCRATCH/505736/C2334-P163

>  <fragmenstein_runtime>  (5) 
3.1483030319213867

>  <fragmenstein_outcome>  (5) 
acceptable

>  <fragmenstein_mode>  (5) 
expansion

>  <fragmenstein_error>  (5) 


$$$$
C2334-P149
     RDKit          3D

 57 63  0  0  0  0  0  0  0  0999 V2000
    1.0732   -2.7681   29.1493 C   0  0  0  0  0  0  0  0  0  0  0  0
    2.3006   -2.6716   29.6787 C   0  0  0  0  0  0  0  0  0  0  0  0
    2.6868   -2.6767   31.1311 C   0  0  0  0  0  0  0  0  0  0  0  0
    1.6051   -2.5478   32.0965 N   0  0  0  0  0  0  0  0  0  0  0  0
    1.0602   -1.3456   32.5084 C   0  0  0  0  0  0  0  0  0  0  0  0
    0.9826   -0.1312   31.7207 C   0  0  0  0  0  0  0  0  0  0  0  0
    1.9260    0.8887   31.8165 C   0  0  0  0  0  0  0  0  0  0  0  0
    1.7794    2.0311   31.0291 C   0  0  0  0  0  0  0  0  0  0  0  0
    0.6911    2.1132   30.1747 C   0  0  0  0  0  0  0  0  0  0  0  0
   -0.2448    1.1476   30.0706 N   0  0  0  0  0  0  0  0  0  0  0  0
   -0.0881    0.0579   30.8514 C   0  0  0  0  0  0  0  0  0  0  0  0
    0.5276   -1.5225   33.6972 N   0  0  0  0  0  0  0  0  0  0  0  0
    0.5295   -2.8589   33.9546 N   0  0  0  0  0  0  0  0  0  0  0  0
    1.0718   -3.5086   32.9380 C   0  0  0  0  0  0  0  0  0  0  0  0
    0.8683   -4.8872   32.5794 C   0  0  0  0  0  0  0  0  0  0  0  0
    0.8903   -5.3698   31.1866 C   0  0  0  0  0  0  0  0  0  0  0  0
    0.1430   -6.3848   30.7370 C   0  0  0  0  0  0  0  0  0  0  0  0
   -0.6216   -7.1127   31.6504 C   0  0  0  0  0  0  0  0  0  0  0  0
   -1.4674   -8.1023   31.5140 N   0  0  0  0  0  0  0  0  0  0  0  0
   -1.8871   -8.4424   32.7766 N   0  0  0  0  0  0  0  0  0  0  0  0
   -1.2596   -7.6760   33.6413 C   0  0  0  0  0  0  0  0  0  0  0  0
   -0.4613   -6.7925   32.9759 N   0  0  0  0  0  0  0  0  0  0  0  0
    0.2944   -5.7274   33.4966 C   0  0  0  0  0  0  0  0  0  0  0  0
    0.3052   -5.6610   35.0349 C   0  0  0  0  0  0  0  0  0  0  0  0
   -0.0128   -7.0651   35.6439 C   0  0  0  0  0  0  0  0  0  0  0  0
   -1.3340   -7.6099   35.1123 C   0  0  0  0  0  0  0  0  0  0  0  0
   -0.6265   -4.6920   35.6216 N   0  0  0  0  0  0  0  0  0  0  0  0
    0.0185   -4.3182   36.8966 N   0  0  0  0  0  0  0  0  0  0  0  0
    1.4221   -4.7139   36.7588 C   0  0  0  0  0  0  0  0  0  0  0  0
    2.3738   -3.5735   36.8834 C   0  0  0  0  0  0  0  0  0  0  0  0
    3.4556   -3.3981   37.7288 C   0  0  0  0  0  0  0  0  0  0  0  0
    4.0272   -2.1340   37.4491 C   0  0  0  0  0  0  0  0  0  0  0  0
    3.2849   -1.5655   36.4408 C   0  0  0  0  0  0  0  0  0  0  0  0
    2.2880   -2.4424   36.1029 N   0  0  0  0  0  0  0  0  0  0  0  0
    1.6192   -5.3013   35.4694 O   0  0  0  0  0  0  0  0  0  0  0  0
    0.1655   -2.8730   29.7350 H   0  0  0  0  0  0  0  0  0  0  0  0
    0.9255   -2.6867   28.0780 H   0  0  0  0  0  0  0  0  0  0  0  0
    3.1324   -2.5389   28.9868 H   0  0  0  0  0  0  0  0  0  0  0  0
    3.2488   -3.5862   31.3709 H   0  0  0  0  0  0  0  0  0  0  0  0
    3.3708   -1.8398   31.3183 H   0  0  0  0  0  0  0  0  0  0  0  0
    2.7650    0.8100   32.5023 H   0  0  0  0  0  0  0  0  0  0  0  0
    2.4936    2.8457   31.0841 H   0  0  0  0  0  0  0  0  0  0  0  0
    0.5291    2.9856   29.5457 H   0  0  0  0  0  0  0  0  0  0  0  0
   -0.8761   -0.6838   30.7482 H   0  0  0  0  0  0  0  0  0  0  0  0
    1.5502   -4.9128   30.4705 H   0  0  0  0  0  0  0  0  0  0  0  0
    0.1444   -6.6928   29.7074 H   0  0  0  0  0  0  0  0  0  0  0  0
    0.8104   -7.7558   35.4086 H   0  0  0  0  0  0  0  0  0  0  0  0
   -0.0500   -7.0369   36.7404 H   0  0  0  0  0  0  0  0  0  0  0  0
   -1.5440   -8.5768   35.5655 H   0  0  0  0  0  0  0  0  0  0  0  0
   -2.1501   -6.9414   35.3885 H   0  0  0  0  0  0  0  0  0  0  0  0
   -0.6361   -3.8684   35.0026 H   0  0  0  0  0  0  0  0  0  0  0  0
   -0.0463   -3.3155   37.0806 H   0  0  0  0  0  0  0  0  0  0  0  0
    1.6563   -5.4718   37.5158 H   0  0  0  0  0  0  0  0  0  0  0  0
    3.7945   -4.1080   38.4729 H   0  0  0  0  0  0  0  0  0  0  0  0
    4.8845   -1.6862   37.9346 H   0  0  0  0  0  0  0  0  0  0  0  0
    3.3718   -0.6131   35.9362 H   0  0  0  0  0  0  0  0  0  0  0  0
    1.5855   -2.2883   35.3818 H   0  0  0  0  0  0  0  0  0  0  0  0
  1  2  2  0
  2  3  1  0
  3  4  1  0
  4  5  1  0
  5  6  1  0
  6  7  2  0
  7  8  1  0
  8  9  2  0
  9 10  1  0
 10 11  2  0
  5 12  2  0
 12 13  1  0
 13 14  2  0
 14 15  1  0
 15 16  1  0
 16 17  2  0
 17 18  1  0
 18 19  2  0
 19 20  1  0
 20 21  2  0
 21 22  1  0
 22 23  1  0
 23 24  1  0
 24 25  1  0
 25 26  1  0
 24 27  1  0
 27 28  1  0
 28 29  1  0
 29 30  1  0
 30 31  2  0
 31 32  1  0
 32 33  2  0
 33 34  1  0
 29 35  1  0
 14  4  1  0
 23 15  2  0
 35 24  1  0
 11  6  1  0
 22 18  1  0
 34 30  1  0
 26 21  1  0
  1 36  1  0
  1 37  1  0
  2 38  1  0
  3 39  1  0
  3 40  1  0
  7 41  1  0
  8 42  1  0
  9 43  1  0
 11 44  1  0
 16 45  1  0
 17 46  1  0
 25 47  1  0
 25 48  1  0
 26 49  1  0
 26 50  1  0
 27 51  1  0
 28 52  1  0
 29 53  1  0
 31 54  1  0
 32 55  1  0
 33 56  1  0
 34 57  1  0
M  END
>  <Energy>  (6) 
70.419153452779071

>  <compound_id>  (6) 
2334

>  <target_id>  (6) 
1

>  <reference_id>  (6) 
149

>  <inspiration_ids>  (6) 
[163, 149]

>  <energy_score>  (6) 
-60.38206245370306

>  <distance_score>  (6) 
0.9646727161449319

>  <path>  (6) 
/opt/xchem-fragalysis-2/maxwin/BulkDock/SCRATCH/505736/C2334-P149/C2334-P149.minimised.mol

>  <scratch_subdir>  (6) 
/opt/xchem-fragalysis-2/maxwin/BulkDock/SCRATCH/505736/C2334-P149

>  <fragmenstein_runtime>  (6) 
3.2729134559631348

>  <fragmenstein_outcome>  (6) 
acceptable

>  <fragmenstein_mode>  (6) 
expansion

>  <fragmenstein_error>  (6) 


$$$$
C2335-P163
     RDKit          3D

 60 66  0  0  0  0  0  0  0  0999 V2000
    0.8368   -2.7355   29.1062 C   0  0  0  0  0  0  0  0  0  0  0  0
    2.1146   -2.4883   29.4287 C   0  0  0  0  0  0  0  0  0  0  0  0
    2.7245   -2.4050   30.7999 C   0  0  0  0  0  0  0  0  0  0  0  0
    1.7995   -2.4273   31.9208 N   0  0  0  0  0  0  0  0  0  0  0  0
    1.1749   -1.3178   32.4542 C   0  0  0  0  0  0  0  0  0  0  0  0
    0.9859   -0.0583   31.7622 C   0  0  0  0  0  0  0  0  0  0  0  0
    1.9121    0.9799   31.8406 C   0  0  0  0  0  0  0  0  0  0  0  0
    1.7096    2.1356   31.0884 C   0  0  0  0  0  0  0  0  0  0  0  0
    0.5823    2.2126   30.2873 C   0  0  0  0  0  0  0  0  0  0  0  0
   -0.3464    1.2359   30.2121 N   0  0  0  0  0  0  0  0  0  0  0  0
   -0.1317    0.1296   30.9558 C   0  0  0  0  0  0  0  0  0  0  0  0
    0.7142   -1.6334   33.6445 N   0  0  0  0  0  0  0  0  0  0  0  0
    0.8947   -2.9776   33.8213 N   0  0  0  0  0  0  0  0  0  0  0  0
    1.4495   -3.4860   32.7313 C   0  0  0  0  0  0  0  0  0  0  0  0
    1.4161   -4.8516   32.2919 C   0  0  0  0  0  0  0  0  0  0  0  0
    1.3695   -5.2974   30.8971 C   0  0  0  0  0  0  0  0  0  0  0  0
    0.5472   -6.2675   30.4735 C   0  0  0  0  0  0  0  0  0  0  0  0
   -0.2610   -6.9375   31.4030 C   0  0  0  0  0  0  0  0  0  0  0  0
   -1.2290   -7.8194   31.3255 N   0  0  0  0  0  0  0  0  0  0  0  0
   -1.6144   -8.1053   32.6220 N   0  0  0  0  0  0  0  0  0  0  0  0
   -0.8621   -7.3972   33.4435 C   0  0  0  0  0  0  0  0  0  0  0  0
    0.0451   -6.6945   32.7167 N   0  0  0  0  0  0  0  0  0  0  0  0
    0.9753   -5.7698   33.1871 C   0  0  0  0  0  0  0  0  0  0  0  0
    1.2416   -5.8382   34.6646 C   0  0  0  0  0  0  0  0  0  0  0  0
   -0.0083   -6.1114   35.5160 C   0  0  0  0  0  0  0  0  0  0  0  0
   -0.9178   -7.2546   34.9221 C   0  0  0  0  0  0  0  0  0  0  0  0
   -0.7681   -4.8682   35.7209 N   0  0  0  0  0  0  0  0  0  0  0  0
   -0.7248   -4.6013   37.1713 N   0  0  0  0  0  0  0  0  0  0  0  0
   -0.5523   -5.9287   37.7257 C   0  0  0  0  0  0  0  0  0  0  0  0
   -0.3518   -6.0687   39.2121 C   0  0  0  0  0  0  0  0  0  0  0  0
    0.3421   -7.1656   39.7565 C   0  0  0  0  0  0  0  0  0  0  0  0
    0.2957   -7.4395   41.1252 C   0  0  0  0  0  0  0  0  0  0  0  0
   -0.4442   -6.6235   41.9753 C   0  0  0  0  0  0  0  0  0  0  0  0
   -1.1307   -5.5279   41.4599 C   0  0  0  0  0  0  0  0  0  0  0  0
   -1.0853   -5.2536   40.0916 C   0  0  0  0  0  0  0  0  0  0  0  0
    0.4721   -6.4820   36.8638 N   0  0  0  0  0  0  0  0  0  0  0  0
    0.5083   -2.7099   28.0718 H   0  0  0  0  0  0  0  0  0  0  0  0
    0.0540   -2.9176   29.8359 H   0  0  0  0  0  0  0  0  0  0  0  0
    2.8037   -2.2857   28.6090 H   0  0  0  0  0  0  0  0  0  0  0  0
    3.4486   -3.2145   30.9443 H   0  0  0  0  0  0  0  0  0  0  0  0
    3.2999   -1.4751   30.8777 H   0  0  0  0  0  0  0  0  0  0  0  0
    2.7891    0.8956   32.4766 H   0  0  0  0  0  0  0  0  0  0  0  0
    2.4139    2.9596   31.1247 H   0  0  0  0  0  0  0  0  0  0  0  0
    0.3818    3.0915   29.6785 H   0  0  0  0  0  0  0  0  0  0  0  0
   -0.9019   -0.6321   30.8653 H   0  0  0  0  0  0  0  0  0  0  0  0
    2.0809   -4.9019   30.1870 H   0  0  0  0  0  0  0  0  0  0  0  0
    0.5808   -6.6001   29.4612 H   0  0  0  0  0  0  0  0  0  0  0  0
    1.9435   -6.6769   34.7996 H   0  0  0  0  0  0  0  0  0  0  0  0
    1.7938   -4.9648   35.0330 H   0  0  0  0  0  0  0  0  0  0  0  0
   -1.9577   -7.1220   35.2324 H   0  0  0  0  0  0  0  0  0  0  0  0
   -0.5994   -8.2157   35.3406 H   0  0  0  0  0  0  0  0  0  0  0  0
   -0.3822   -4.0796   35.1832 H   0  0  0  0  0  0  0  0  0  0  0  0
    0.1273   -4.0889   37.4112 H   0  0  0  0  0  0  0  0  0  0  0  0
   -1.4658   -6.4694   37.5285 H   0  0  0  0  0  0  0  0  0  0  0  0
    0.8875   -7.8584   39.1205 H   0  0  0  0  0  0  0  0  0  0  0  0
    0.8179   -8.3078   41.5203 H   0  0  0  0  0  0  0  0  0  0  0  0
   -0.4925   -6.8458   43.0376 H   0  0  0  0  0  0  0  0  0  0  0  0
   -1.7265   -4.8989   42.1159 H   0  0  0  0  0  0  0  0  0  0  0  0
   -1.6881   -4.4333   39.7031 H   0  0  0  0  0  0  0  0  0  0  0  0
    0.4617   -7.4901   36.9839 H   0  0  0  0  0  0  0  0  0  0  0  0
  1  2  2  0
  2  3  1  0
  3  4  1  0
  4  5  1  0
  5  6  1  0
  6  7  2  0
  7  8  1  0
  8  9  2  0
  9 10  1  0
 10 11  2  0
  5 12  2  0
 12 13  1  0
 13 14  2  0
 14 15  1  0
 15 16  1  0
 16 17  2  0
 17 18  1  0
 18 19  2  0
 19 20  1  0
 20 21  2  0
 21 22  1  0
 22 23  1  0
 23 24  1  0
 24 25  1  0
 25 26  1  0
 25 27  1  0
 27 28  1  0
 28 29  1  0
 29 30  1  0
 30 31  2  0
 31 32  1  0
 32 33  2  0
 33 34  1  0
 34 35  2  0
 29 36  1  0
 14  4  1  0
 23 15  2  0
 36 25  1  0
 11  6  1  0
 22 18  1  0
 35 30  1  0
 26 21  1  0
  1 37  1  0
  1 38  1  0
  2 39  1  0
  3 40  1  0
  3 41  1  0
  7 42  1  0
  8 43  1  0
  9 44  1  0
 11 45  1  0
 16 46  1  0
 17 47  1  0
 24 48  1  0
 24 49  1  0
 26 50  1  0
 26 51  1  0
 27 52  1  0
 28 53  1  0
 29 54  1  0
 31 55  1  0
 32 56  1  0
 33 57  1  0
 34 58  1  0
 35 59  1  0
 36 60  1  0
M  END
>  <Energy>  (7) 
139.34596574946613

>  <compound_id>  (7) 
2335

>  <target_id>  (7) 
1

>  <reference_id>  (7) 
163

>  <inspiration_ids>  (7) 
[163, 150]

>  <energy_score>  (7) 
-21.04909188473522

>  <distance_score>  (7) 
0.6264885487784654

>  <path>  (7) 
/opt/xchem-fragalysis-2/maxwin/BulkDock/SCRATCH/505736/C2335-P163/C2335-P163.minimised.mol

>  <scratch_subdir>  (7) 
/opt/xchem-fragalysis-2/maxwin/BulkDock/SCRATCH/505736/C2335-P163

>  <fragmenstein_runtime>  (7) 
2.9517295360565186

>  <fragmenstein_outcome>  (7) 
acceptable

>  <fragmenstein_mode>  (7) 
expansion

>  <fragmenstein_error>  (7) 


$$$$
C2335-P150
     RDKit          3D

 60 66  0  0  0  0  0  0  0  0999 V2000
    2.7474   -4.1456   29.0131 C   0  0  0  0  0  0  0  0  0  0  0  0
    2.9816   -3.4931   30.1614 C   0  0  0  0  0  0  0  0  0  0  0  0
    2.2741   -2.2312   30.5507 C   0  0  0  0  0  0  0  0  0  0  0  0
    1.5877   -2.2214   31.8417 N   0  0  0  0  0  0  0  0  0  0  0  0
    1.1652   -1.0567   32.4559 C   0  0  0  0  0  0  0  0  0  0  0  0
    1.0386    0.2085   31.7660 C   0  0  0  0  0  0  0  0  0  0  0  0
    1.8936    1.2761   32.0185 C   0  0  0  0  0  0  0  0  0  0  0  0
    1.8127    2.4133   31.2190 C   0  0  0  0  0  0  0  0  0  0  0  0
    0.8802    2.4366   30.1951 C   0  0  0  0  0  0  0  0  0  0  0  0
    0.0183    1.4268   29.9463 N   0  0  0  0  0  0  0  0  0  0  0  0
    0.0988    0.3479   30.7482 C   0  0  0  0  0  0  0  0  0  0  0  0
    0.8354   -1.3348   33.6974 N   0  0  0  0  0  0  0  0  0  0  0  0
    0.7947   -2.6994   33.8137 N   0  0  0  0  0  0  0  0  0  0  0  0
    1.0966   -3.2263   32.6388 C   0  0  0  0  0  0  0  0  0  0  0  0
    0.7303   -4.5036   32.1374 C   0  0  0  0  0  0  0  0  0  0  0  0
    0.1764   -4.6890   30.7836 C   0  0  0  0  0  0  0  0  0  0  0  0
   -0.3418   -5.8471   30.3549 C   0  0  0  0  0  0  0  0  0  0  0  0
   -0.5937   -6.8564   31.2937 C   0  0  0  0  0  0  0  0  0  0  0  0
   -1.3080   -7.9545   31.2660 N   0  0  0  0  0  0  0  0  0  0  0  0
   -1.4605   -8.3597   32.5747 N   0  0  0  0  0  0  0  0  0  0  0  0
   -0.8008   -7.5207   33.3495 C   0  0  0  0  0  0  0  0  0  0  0  0
   -0.1482   -6.6223   32.5676 N   0  0  0  0  0  0  0  0  0  0  0  0
    0.6265   -5.5509   32.9940 C   0  0  0  0  0  0  0  0  0  0  0  0
    1.1452   -5.7120   34.4125 C   0  0  0  0  0  0  0  0  0  0  0  0
    0.0457   -6.1736   35.3982 C   0  0  0  0  0  0  0  0  0  0  0  0
   -0.7737   -7.4010   34.8318 C   0  0  0  0  0  0  0  0  0  0  0  0
   -0.8599   -5.0568   35.6888 N   0  0  0  0  0  0  0  0  0  0  0  0
   -0.9464   -4.9520   37.1436 N   0  0  0  0  0  0  0  0  0  0  0  0
   -0.4798   -6.2446   37.6136 C   0  0  0  0  0  0  0  0  0  0  0  0
   -0.2740   -6.3590   39.1045 C   0  0  0  0  0  0  0  0  0  0  0  0
    0.5467   -7.3576   39.6499 C   0  0  0  0  0  0  0  0  0  0  0  0
    0.5492   -7.6097   41.0248 C   0  0  0  0  0  0  0  0  0  0  0  0
   -0.2725   -6.8750   41.8768 C   0  0  0  0  0  0  0  0  0  0  0  0
   -1.0935   -5.8800   41.3586 C   0  0  0  0  0  0  0  0  0  0  0  0
   -1.0952   -5.6271   39.9866 C   0  0  0  0  0  0  0  0  0  0  0  0
    0.6420   -6.4926   36.7194 N   0  0  0  0  0  0  0  0  0  0  0  0
    3.3018   -5.0451   28.7615 H   0  0  0  0  0  0  0  0  0  0  0  0
    2.0179   -3.7954   28.2876 H   0  0  0  0  0  0  0  0  0  0  0  0
    3.7438   -3.8655   30.8426 H   0  0  0  0  0  0  0  0  0  0  0  0
    3.0273   -1.4349   30.5954 H   0  0  0  0  0  0  0  0  0  0  0  0
    1.5301   -1.9495   29.7968 H   0  0  0  0  0  0  0  0  0  0  0  0
    2.6315    1.2217   32.8149 H   0  0  0  0  0  0  0  0  0  0  0  0
    2.4684    3.2619   31.3838 H   0  0  0  0  0  0  0  0  0  0  0  0
    0.7870    3.3001   29.5397 H   0  0  0  0  0  0  0  0  0  0  0  0
   -0.6157   -0.4385   30.5171 H   0  0  0  0  0  0  0  0  0  0  0  0
    0.1605   -3.8523   30.0929 H   0  0  0  0  0  0  0  0  0  0  0  0
   -0.7427   -5.9411   29.3587 H   0  0  0  0  0  0  0  0  0  0  0  0
    1.9337   -6.4792   34.3803 H   0  0  0  0  0  0  0  0  0  0  0  0
    1.6475   -4.8111   34.7811 H   0  0  0  0  0  0  0  0  0  0  0  0
   -1.8058   -7.3869   35.1961 H   0  0  0  0  0  0  0  0  0  0  0  0
   -0.3376   -8.3197   35.2227 H   0  0  0  0  0  0  0  0  0  0  0  0
   -0.5428   -4.1758   35.2664 H   0  0  0  0  0  0  0  0  0  0  0  0
   -0.2546   -4.2767   37.4813 H   0  0  0  0  0  0  0  0  0  0  0  0
   -1.2254   -7.0041   37.3965 H   0  0  0  0  0  0  0  0  0  0  0  0
    1.1615   -7.9804   39.0057 H   0  0  0  0  0  0  0  0  0  0  0  0
    1.1849   -8.3921   41.4303 H   0  0  0  0  0  0  0  0  0  0  0  0
   -0.2749   -7.0800   42.9439 H   0  0  0  0  0  0  0  0  0  0  0  0
   -1.7504   -5.3143   42.0142 H   0  0  0  0  0  0  0  0  0  0  0  0
   -1.7929   -4.8842   39.6021 H   0  0  0  0  0  0  0  0  0  0  0  0
    0.8560   -7.4837   36.7736 H   0  0  0  0  0  0  0  0  0  0  0  0
  1  2  2  0
  2  3  1  0
  3  4  1  0
  4  5  1  0
  5  6  1  0
  6  7  2  0
  7  8  1  0
  8  9  2  0
  9 10  1  0
 10 11  2  0
  5 12  2  0
 12 13  1  0
 13 14  2  0
 14 15  1  0
 15 16  1  0
 16 17  2  0
 17 18  1  0
 18 19  2  0
 19 20  1  0
 20 21  2  0
 21 22  1  0
 22 23  1  0
 23 24  1  0
 24 25  1  0
 25 26  1  0
 25 27  1  0
 27 28  1  0
 28 29  1  0
 29 30  1  0
 30 31  2  0
 31 32  1  0
 32 33  2  0
 33 34  1  0
 34 35  2  0
 29 36  1  0
 14  4  1  0
 23 15  2  0
 36 25  1  0
 11  6  1  0
 22 18  1  0
 35 30  1  0
 26 21  1  0
  1 37  1  0
  1 38  1  0
  2 39  1  0
  3 40  1  0
  3 41  1  0
  7 42  1  0
  8 43  1  0
  9 44  1  0
 11 45  1  0
 16 46  1  0
 17 47  1  0
 24 48  1  0
 24 49  1  0
 26 50  1  0
 26 51  1  0
 27 52  1  0
 28 53  1  0
 29 54  1  0
 31 55  1  0
 32 56  1  0
 33 57  1  0
 34 58  1  0
 35 59  1  0
 36 60  1  0
M  END
>  <Energy>  (8) 
130.91827209151447

>  <compound_id>  (8) 
2335

>  <target_id>  (8) 
1

>  <reference_id>  (8) 
150

>  <inspiration_ids>  (8) 
[163, 150]

>  <energy_score>  (8) 
-29.476785542690322

>  <distance_score>  (8) 
0.668613107520614

>  <path>  (8) 
/opt/xchem-fragalysis-2/maxwin/BulkDock/SCRATCH/505736/C2335-P150/C2335-P150.minimised.mol

>  <scratch_subdir>  (8) 
/opt/xchem-fragalysis-2/maxwin/BulkDock/SCRATCH/505736/C2335-P150

>  <fragmenstein_runtime>  (8) 
4.027288198471069

>  <fragmenstein_outcome>  (8) 
acceptable

>  <fragmenstein_mode>  (8) 
expansion

>  <fragmenstein_error>  (8) 


$$$$
C2336-P163
     RDKit          3D

 66 72  0  0  0  0  0  0  0  0999 V2000
    1.7095   -2.8073   29.1857 C   0  0  0  0  0  0  0  0  0  0  0  0
    2.5751   -3.1686   30.1413 C   0  0  0  0  0  0  0  0  0  0  0  0
    2.6196   -2.7793   31.5943 C   0  0  0  0  0  0  0  0  0  0  0  0
    1.3853   -2.3973   32.2782 N   0  0  0  0  0  0  0  0  0  0  0  0
    0.9662   -1.1093   32.5341 C   0  0  0  0  0  0  0  0  0  0  0  0
    0.9815    0.0022   31.6108 C   0  0  0  0  0  0  0  0  0  0  0  0
    2.0225    0.9206   31.5384 C   0  0  0  0  0  0  0  0  0  0  0  0
    1.9083    2.0062   30.6702 C   0  0  0  0  0  0  0  0  0  0  0  0
    0.7562    2.1317   29.9074 C   0  0  0  0  0  0  0  0  0  0  0  0
   -0.2711    1.2597   29.9607 N   0  0  0  0  0  0  0  0  0  0  0  0
   -0.1424    0.2265   30.8181 C   0  0  0  0  0  0  0  0  0  0  0  0
    0.3367   -1.1036   33.6888 N   0  0  0  0  0  0  0  0  0  0  0  0
    0.1279   -2.3964   34.0549 N   0  0  0  0  0  0  0  0  0  0  0  0
    0.6266   -3.1910   33.1336 C   0  0  0  0  0  0  0  0  0  0  0  0
    0.2189   -4.5106   32.7726 C   0  0  0  0  0  0  0  0  0  0  0  0
   -0.0317   -4.7583   31.3377 C   0  0  0  0  0  0  0  0  0  0  0  0
   -0.4457   -5.9137   30.8221 C   0  0  0  0  0  0  0  0  0  0  0  0
   -0.8899   -6.8892   31.7082 C   0  0  0  0  0  0  0  0  0  0  0  0
   -1.5813   -7.9812   31.5067 N   0  0  0  0  0  0  0  0  0  0  0  0
   -1.8773   -8.4785   32.7334 N   0  0  0  0  0  0  0  0  0  0  0  0
   -1.3643   -7.6827   33.6450 C   0  0  0  0  0  0  0  0  0  0  0  0
   -0.7179   -6.6433   33.0559 N   0  0  0  0  0  0  0  0  0  0  0  0
   -0.1218   -5.5016   33.6582 C   0  0  0  0  0  0  0  0  0  0  0  0
   -0.0502   -5.6049   35.2282 C   0  0  0  0  0  0  0  0  0  0  0  0
   -0.0605   -4.3195   36.1215 C   0  0  0  0  0  0  0  0  0  0  0  0
    1.3121   -3.7496   36.4987 C   0  0  0  0  0  0  0  0  0  0  0  0
    2.1053   -4.6518   37.4670 C   0  0  0  0  0  0  0  0  0  0  0  0
    1.7002   -6.1186   37.3630 C   0  0  0  0  0  0  0  0  0  0  0  0
    2.5226   -7.1429   38.1058 C   0  0  0  0  0  0  0  0  0  0  0  0
    3.9083   -7.2589   37.9674 C   0  0  0  0  0  0  0  0  0  0  0  0
    4.6090   -8.2339   38.6860 C   0  0  0  0  0  0  0  0  0  0  0  0
    3.9384   -9.1008   39.5487 C   0  0  0  0  0  0  0  0  0  0  0  0
    2.5613   -9.0005   39.6934 C   0  0  0  0  0  0  0  0  0  0  0  0
    1.8602   -8.0337   38.9751 C   0  0  0  0  0  0  0  0  0  0  0  0
    1.4961   -6.5742   35.6352 S   0  0  0  0  0  0  0  0  0  0  0  0
    1.1997   -7.9835   35.5535 O   0  0  0  0  0  0  0  0  0  0  0  0
    2.6045   -6.0810   34.8411 O   0  0  0  0  0  0  0  0  0  0  0  0
   -1.2493   -6.4374   35.7793 C   0  0  0  0  0  0  0  0  0  0  0  0
   -1.5406   -7.7579   35.0918 C   0  0  0  0  0  0  0  0  0  0  0  0
    1.8282   -3.1649   28.1669 H   0  0  0  0  0  0  0  0  0  0  0  0
    0.8830   -2.1240   29.3540 H   0  0  0  0  0  0  0  0  0  0  0  0
    3.3903   -3.8274   29.8400 H   0  0  0  0  0  0  0  0  0  0  0  0
    3.3368   -1.9611   31.7290 H   0  0  0  0  0  0  0  0  0  0  0  0
    3.0190   -3.6301   32.1620 H   0  0  0  0  0  0  0  0  0  0  0  0
    2.9044    0.8185   32.1640 H   0  0  0  0  0  0  0  0  0  0  0  0
    2.6967    2.7477   30.5950 H   0  0  0  0  0  0  0  0  0  0  0  0
    0.6221    2.9644   29.2209 H   0  0  0  0  0  0  0  0  0  0  0  0
   -1.0039   -0.4360   30.8567 H   0  0  0  0  0  0  0  0  0  0  0  0
    0.0756   -3.9380   30.6442 H   0  0  0  0  0  0  0  0  0  0  0  0
   -0.5856   -6.0457   29.7600 H   0  0  0  0  0  0  0  0  0  0  0  0
   -0.7250   -3.5686   35.6920 H   0  0  0  0  0  0  0  0  0  0  0  0
   -0.5593   -4.5280   37.0801 H   0  0  0  0  0  0  0  0  0  0  0  0
    1.9148   -3.5795   35.6009 H   0  0  0  0  0  0  0  0  0  0  0  0
    1.1828   -2.7664   36.9668 H   0  0  0  0  0  0  0  0  0  0  0  0
    1.9447   -4.3109   38.4977 H   0  0  0  0  0  0  0  0  0  0  0  0
    3.1752   -4.5150   37.2689 H   0  0  0  0  0  0  0  0  0  0  0  0
    0.6988   -6.1945   37.7982 H   0  0  0  0  0  0  0  0  0  0  0  0
    4.4598   -6.6046   37.2957 H   0  0  0  0  0  0  0  0  0  0  0  0
    5.6865   -8.3206   38.5678 H   0  0  0  0  0  0  0  0  0  0  0  0
    4.4887   -9.8609   40.0964 H   0  0  0  0  0  0  0  0  0  0  0  0
    2.0223   -9.6920   40.3381 H   0  0  0  0  0  0  0  0  0  0  0  0
    0.7780   -8.0092   39.0924 H   0  0  0  0  0  0  0  0  0  0  0  0
   -2.1322   -5.8085   35.7478 H   0  0  0  0  0  0  0  0  0  0  0  0
   -1.1042   -6.6574   36.8418 H   0  0  0  0  0  0  0  0  0  0  0  0
   -0.9221   -8.5282   35.5378 H   0  0  0  0  0  0  0  0  0  0  0  0
   -2.5617   -8.0918   35.2721 H   0  0  0  0  0  0  0  0  0  0  0  0
  1  2  2  0
  2  3  1  0
  3  4  1  0
  4  5  1  0
  5  6  1  0
  6  7  2  0
  7  8  1  0
  8  9  2  0
  9 10  1  0
 10 11  2  0
  5 12  2  0
 12 13  1  0
 13 14  2  0
 14 15  1  0
 15 16  1  0
 16 17  2  0
 17 18  1  0
 18 19  2  0
 19 20  1  0
 20 21  2  0
 21 22  1  0
 22 23  1  0
 23 24  1  0
 24 25  1  0
 25 26  1  0
 26 27  1  0
 27 28  1  0
 28 29  1  0
 29 30  2  0
 30 31  1  0
 31 32  2  0
 32 33  1  0
 33 34  2  0
 28 35  1  0
 35 36  2  0
 35 37  2  0
 24 38  1  0
 38 39  1  0
 14  4  1  0
 23 15  2  0
 35 24  1  0
 11  6  1  0
 22 18  1  0
 34 29  1  0
 39 21  1  0
  1 40  1  0
  1 41  1  0
  2 42  1  0
  3 43  1  0
  3 44  1  0
  7 45  1  0
  8 46  1  0
  9 47  1  0
 11 48  1  0
 16 49  1  0
 17 50  1  0
 25 51  1  0
 25 52  1  0
 26 53  1  0
 26 54  1  0
 27 55  1  0
 27 56  1  0
 28 57  1  0
 30 58  1  0
 31 59  1  0
 32 60  1  0
 33 61  1  0
 34 62  1  0
 38 63  1  0
 38 64  1  0
 39 65  1  0
 39 66  1  0
M  END
>  <Energy>  (9) 
169.84330968999049

>  <compound_id>  (9) 
2336

>  <target_id>  (9) 
1

>  <reference_id>  (9) 
163

>  <inspiration_ids>  (9) 
[163, 152]

>  <energy_score>  (9) 
-50.00117526052969

>  <distance_score>  (9) 
1.2787467709276856

>  <path>  (9) 
/opt/xchem-fragalysis-2/maxwin/BulkDock/SCRATCH/505736/C2336-P163/C2336-P163.minimised.mol

>  <scratch_subdir>  (9) 
/opt/xchem-fragalysis-2/maxwin/BulkDock/SCRATCH/505736/C2336-P163

>  <fragmenstein_runtime>  (9) 
7.250850677490234

>  <fragmenstein_outcome>  (9) 
too moved

>  <fragmenstein_mode>  (9) 
expansion

>  <fragmenstein_error>  (9) 


$$$$
C2336-P152
     RDKit          3D

 66 72  0  0  0  0  0  0  0  0999 V2000
    2.3449   -3.9381   29.2307 C   0  0  0  0  0  0  0  0  0  0  0  0
    2.2605   -2.8407   29.9952 C   0  0  0  0  0  0  0  0  0  0  0  0
    2.5243   -2.8009   31.4733 C   0  0  0  0  0  0  0  0  0  0  0  0
    1.3779   -2.4270   32.2981 N   0  0  0  0  0  0  0  0  0  0  0  0
    0.9644   -1.1429   32.5788 C   0  0  0  0  0  0  0  0  0  0  0  0
    0.9650   -0.0168   31.6698 C   0  0  0  0  0  0  0  0  0  0  0  0
    1.7662    1.1033   31.8687 C   0  0  0  0  0  0  0  0  0  0  0  0
    1.6401    2.1935   31.0080 C   0  0  0  0  0  0  0  0  0  0  0  0
    0.7109    2.1256   29.9809 C   0  0  0  0  0  0  0  0  0  0  0  0
   -0.0814    1.0548   29.7637 N   0  0  0  0  0  0  0  0  0  0  0  0
    0.0509    0.0187   30.6187 C   0  0  0  0  0  0  0  0  0  0  0  0
    0.3993   -1.1521   33.7660 N   0  0  0  0  0  0  0  0  0  0  0  0
    0.1893   -2.4538   34.1115 N   0  0  0  0  0  0  0  0  0  0  0  0
    0.6428   -3.2363   33.1555 C   0  0  0  0  0  0  0  0  0  0  0  0
    0.2211   -4.5519   32.7819 C   0  0  0  0  0  0  0  0  0  0  0  0
   -0.0524   -4.7826   31.3450 C   0  0  0  0  0  0  0  0  0  0  0  0
   -0.4592   -5.9407   30.8257 C   0  0  0  0  0  0  0  0  0  0  0  0
   -0.8974   -6.9269   31.7056 C   0  0  0  0  0  0  0  0  0  0  0  0
   -1.5861   -8.0220   31.5036 N   0  0  0  0  0  0  0  0  0  0  0  0
   -1.8601   -8.5438   32.7281 N   0  0  0  0  0  0  0  0  0  0  0  0
   -1.3418   -7.7511   33.6375 C   0  0  0  0  0  0  0  0  0  0  0  0
   -0.7072   -6.6976   33.0525 N   0  0  0  0  0  0  0  0  0  0  0  0
   -0.0974   -5.5612   33.6582 C   0  0  0  0  0  0  0  0  0  0  0  0
    0.0008   -5.6844   35.2255 C   0  0  0  0  0  0  0  0  0  0  0  0
   -0.0221   -4.4057   36.1311 C   0  0  0  0  0  0  0  0  0  0  0  0
    1.3458   -3.8296   36.5180 C   0  0  0  0  0  0  0  0  0  0  0  0
    2.1449   -4.7385   37.4746 C   0  0  0  0  0  0  0  0  0  0  0  0
    1.7428   -6.2047   37.3539 C   0  0  0  0  0  0  0  0  0  0  0  0
    2.5548   -7.2364   38.0945 C   0  0  0  0  0  0  0  0  0  0  0  0
    3.9411   -7.3527   37.9674 C   0  0  0  0  0  0  0  0  0  0  0  0
    4.6333   -8.3309   38.6889 C   0  0  0  0  0  0  0  0  0  0  0  0
    3.9531   -9.2001   39.5420 C   0  0  0  0  0  0  0  0  0  0  0  0
    2.5746   -9.0997   39.6749 C   0  0  0  0  0  0  0  0  0  0  0  0
    1.8817   -8.1295   38.9544 C   0  0  0  0  0  0  0  0  0  0  0  0
    1.5477   -6.6445   35.6188 S   0  0  0  0  0  0  0  0  0  0  0  0
    1.2651   -8.0575   35.5108 O   0  0  0  0  0  0  0  0  0  0  0  0
    2.6458   -6.1258   34.8288 O   0  0  0  0  0  0  0  0  0  0  0  0
   -1.1809   -6.5335   35.7742 C   0  0  0  0  0  0  0  0  0  0  0  0
   -1.4837   -7.8499   35.0836 C   0  0  0  0  0  0  0  0  0  0  0  0
    2.1602   -3.8750   28.1640 H   0  0  0  0  0  0  0  0  0  0  0  0
    2.6127   -4.9078   29.6381 H   0  0  0  0  0  0  0  0  0  0  0  0
    2.0163   -1.8964   29.5091 H   0  0  0  0  0  0  0  0  0  0  0  0
    3.3139   -2.0688   31.6812 H   0  0  0  0  0  0  0  0  0  0  0  0
    2.8876   -3.7676   31.8424 H   0  0  0  0  0  0  0  0  0  0  0  0
    2.4630    1.1489   32.7015 H   0  0  0  0  0  0  0  0  0  0  0  0
    2.2366    3.0891   31.1466 H   0  0  0  0  0  0  0  0  0  0  0  0
    0.5632    2.9598   29.2991 H   0  0  0  0  0  0  0  0  0  0  0  0
   -0.6356   -0.8036   30.4325 H   0  0  0  0  0  0  0  0  0  0  0  0
    0.0584   -3.9559   30.6527 H   0  0  0  0  0  0  0  0  0  0  0  0
   -0.5850   -6.0746   29.7611 H   0  0  0  0  0  0  0  0  0  0  0  0
   -0.6915   -3.6561   35.7070 H   0  0  0  0  0  0  0  0  0  0  0  0
   -0.5226   -4.6250   37.0864 H   0  0  0  0  0  0  0  0  0  0  0  0
    1.9491   -3.6441   35.6237 H   0  0  0  0  0  0  0  0  0  0  0  0
    1.2084   -2.8536   36.9985 H   0  0  0  0  0  0  0  0  0  0  0  0
    1.9851   -4.4096   38.5093 H   0  0  0  0  0  0  0  0  0  0  0  0
    3.2140   -4.5971   37.2759 H   0  0  0  0  0  0  0  0  0  0  0  0
    0.7402   -6.2829   37.7843 H   0  0  0  0  0  0  0  0  0  0  0  0
    4.5000   -6.6956   37.3047 H   0  0  0  0  0  0  0  0  0  0  0  0
    5.7119   -8.4190   38.5815 H   0  0  0  0  0  0  0  0  0  0  0  0
    4.4970   -9.9627   40.0932 H   0  0  0  0  0  0  0  0  0  0  0  0
    2.0324   -9.7925   40.3162 H   0  0  0  0  0  0  0  0  0  0  0  0
    0.7995   -8.0990   39.0680 H   0  0  0  0  0  0  0  0  0  0  0  0
   -2.0597   -5.9032   35.7392 H   0  0  0  0  0  0  0  0  0  0  0  0
   -1.0293   -6.7582   36.8339 H   0  0  0  0  0  0  0  0  0  0  0  0
   -0.8547   -8.6298   35.5007 H   0  0  0  0  0  0  0  0  0  0  0  0
   -2.5033   -8.1807   35.2840 H   0  0  0  0  0  0  0  0  0  0  0  0
  1  2  2  0
  2  3  1  0
  3  4  1  0
  4  5  1  0
  5  6  1  0
  6  7  2  0
  7  8  1  0
  8  9  2  0
  9 10  1  0
 10 11  2  0
  5 12  2  0
 12 13  1  0
 13 14  2  0
 14 15  1  0
 15 16  1  0
 16 17  2  0
 17 18  1  0
 18 19  2  0
 19 20  1  0
 20 21  2  0
 21 22  1  0
 22 23  1  0
 23 24  1  0
 24 25  1  0
 25 26  1  0
 26 27  1  0
 27 28  1  0
 28 29  1  0
 29 30  2  0
 30 31  1  0
 31 32  2  0
 32 33  1  0
 33 34  2  0
 28 35  1  0
 35 36  2  0
 35 37  2  0
 24 38  1  0
 38 39  1  0
 14  4  1  0
 23 15  2  0
 35 24  1  0
 11  6  1  0
 22 18  1  0
 34 29  1  0
 39 21  1  0
  1 40  1  0
  1 41  1  0
  2 42  1  0
  3 43  1  0
  3 44  1  0
  7 45  1  0
  8 46  1  0
  9 47  1  0
 11 48  1  0
 16 49  1  0
 17 50  1  0
 25 51  1  0
 25 52  1  0
 26 53  1  0
 26 54  1  0
 27 55  1  0
 27 56  1  0
 28 57  1  0
 30 58  1  0
 31 59  1  0
 32 60  1  0
 33 61  1  0
 34 62  1  0
 38 63  1  0
 38 64  1  0
 39 65  1  0
 39 66  1  0
M  END
>  <Energy>  (10) 
166.07731567030658

>  <compound_id>  (10) 
2336

>  <target_id>  (10) 
1

>  <reference_id>  (10) 
152

>  <inspiration_ids>  (10) 
[163, 152]

>  <energy_score>  (10) 
-53.76716928021429

>  <distance_score>  (10) 
1.1819185206867442

>  <path>  (10) 
/opt/xchem-fragalysis-2/maxwin/BulkDock/SCRATCH/505736/C2336-P152/C2336-P152.minimised.mol

>  <scratch_subdir>  (10) 
/opt/xchem-fragalysis-2/maxwin/BulkDock/SCRATCH/505736/C2336-P152

>  <fragmenstein_runtime>  (10) 
8.477449417114258

>  <fragmenstein_outcome>  (10) 
too moved

>  <fragmenstein_mode>  (10) 
expansion

>  <fragmenstein_error>  (10) 


$$$$
C2336-P163
     RDKit          3D

 66 72  0  0  0  0  0  0  0  0999 V2000
    0.5991   -3.2276   29.2444 C   0  0  0  0  0  0  0  0  0  0  0  0
    1.8778   -2.9251   29.5042 C   0  0  0  0  0  0  0  0  0  0  0  0
    2.5150   -2.6577   30.8366 C   0  0  0  0  0  0  0  0  0  0  0  0
    1.6302   -2.6276   31.9996 N   0  0  0  0  0  0  0  0  0  0  0  0
    1.2735   -1.4384   32.6102 C   0  0  0  0  0  0  0  0  0  0  0  0
    1.0038   -0.1931   31.9089 C   0  0  0  0  0  0  0  0  0  0  0  0
    1.8072    0.9321   32.0916 C   0  0  0  0  0  0  0  0  0  0  0  0
    1.5705    2.0798   31.3357 C   0  0  0  0  0  0  0  0  0  0  0  0
    0.5212    2.0698   30.4326 C   0  0  0  0  0  0  0  0  0  0  0  0
   -0.3045    1.0154   30.2631 N   0  0  0  0  0  0  0  0  0  0  0  0
   -0.0448   -0.0888   30.9994 C   0  0  0  0  0  0  0  0  0  0  0  0
    1.3409   -1.6354   33.9091 N   0  0  0  0  0  0  0  0  0  0  0  0
    1.5367   -2.9827   34.1249 N   0  0  0  0  0  0  0  0  0  0  0  0
    1.4593   -3.6115   32.9721 C   0  0  0  0  0  0  0  0  0  0  0  0
    1.0321   -4.9454   32.6408 C   0  0  0  0  0  0  0  0  0  0  0  0
    1.3557   -5.5325   31.3244 C   0  0  0  0  0  0  0  0  0  0  0  0
    0.6392   -6.4909   30.7292 C   0  0  0  0  0  0  0  0  0  0  0  0
   -0.3689   -7.1072   31.4703 C   0  0  0  0  0  0  0  0  0  0  0  0
   -1.2493   -8.0289   31.1656 N   0  0  0  0  0  0  0  0  0  0  0  0
   -1.8651   -8.3818   32.3316 N   0  0  0  0  0  0  0  0  0  0  0  0
   -1.3362   -7.6736   33.3070 C   0  0  0  0  0  0  0  0  0  0  0  0
   -0.4376   -6.7796   32.8117 N   0  0  0  0  0  0  0  0  0  0  0  0
    0.2336   -5.7106   33.4655 C   0  0  0  0  0  0  0  0  0  0  0  0
   -0.1101   -5.5858   35.0074 C   0  0  0  0  0  0  0  0  0  0  0  0
   -0.4403   -4.1616   35.5929 C   0  0  0  0  0  0  0  0  0  0  0  0
    0.3585   -3.4858   36.7359 C   0  0  0  0  0  0  0  0  0  0  0  0
    1.4715   -4.2500   37.4543 C   0  0  0  0  0  0  0  0  0  0  0  0
    1.1154   -5.7140   37.5171 C   0  0  0  0  0  0  0  0  0  0  0  0
    1.7748   -6.5932   38.5454 C   0  0  0  0  0  0  0  0  0  0  0  0
    0.9462   -7.2699   39.4649 C   0  0  0  0  0  0  0  0  0  0  0  0
    1.4766   -8.1533   40.3995 C   0  0  0  0  0  0  0  0  0  0  0  0
    2.8478   -8.3678   40.4371 C   0  0  0  0  0  0  0  0  0  0  0  0
    3.6828   -7.6960   39.5437 C   0  0  0  0  0  0  0  0  0  0  0  0
    3.1529   -6.8085   38.6025 C   0  0  0  0  0  0  0  0  0  0  0  0
    1.2995   -6.4128   35.8764 S   0  0  0  0  0  0  0  0  0  0  0  0
    2.5556   -6.0313   35.2655 O   0  0  0  0  0  0  0  0  0  0  0  0
    1.0030   -7.8278   35.9492 O   0  0  0  0  0  0  0  0  0  0  0  0
   -1.3308   -6.4705   35.4587 C   0  0  0  0  0  0  0  0  0  0  0  0
   -1.5849   -7.7709   34.7423 C   0  0  0  0  0  0  0  0  0  0  0  0
    0.2497   -3.3569   28.2242 H   0  0  0  0  0  0  0  0  0  0  0  0
   -0.1628   -3.3204   30.0111 H   0  0  0  0  0  0  0  0  0  0  0  0
    2.5492   -2.8252   28.6513 H   0  0  0  0  0  0  0  0  0  0  0  0
    3.0240   -1.6873   30.7859 H   0  0  0  0  0  0  0  0  0  0  0  0
    3.3077   -3.3853   31.0419 H   0  0  0  0  0  0  0  0  0  0  0  0
    2.6279    0.9144   32.8051 H   0  0  0  0  0  0  0  0  0  0  0  0
    2.1917    2.9620   31.4474 H   0  0  0  0  0  0  0  0  0  0  0  0
    0.3020    2.9377   29.8147 H   0  0  0  0  0  0  0  0  0  0  0  0
   -0.7278   -0.9142   30.8190 H   0  0  0  0  0  0  0  0  0  0  0  0
    2.2493   -5.2031   30.8130 H   0  0  0  0  0  0  0  0  0  0  0  0
    0.9012   -6.8833   29.7587 H   0  0  0  0  0  0  0  0  0  0  0  0
   -1.4551   -4.1924   36.0156 H   0  0  0  0  0  0  0  0  0  0  0  0
   -0.6175   -3.4501   34.7794 H   0  0  0  0  0  0  0  0  0  0  0  0
    0.7572   -2.5223   36.4013 H   0  0  0  0  0  0  0  0  0  0  0  0
   -0.3753   -3.2030   37.5057 H   0  0  0  0  0  0  0  0  0  0  0  0
    2.4270   -4.0863   36.9428 H   0  0  0  0  0  0  0  0  0  0  0  0
    1.5909   -3.8343   38.4625 H   0  0  0  0  0  0  0  0  0  0  0  0
    0.0462   -5.7649   37.7468 H   0  0  0  0  0  0  0  0  0  0  0  0
   -0.1336   -7.1426   39.4475 H   0  0  0  0  0  0  0  0  0  0  0  0
    0.8210   -8.6992   41.0733 H   0  0  0  0  0  0  0  0  0  0  0  0
    3.2663   -9.0713   41.1519 H   0  0  0  0  0  0  0  0  0  0  0  0
    4.7549   -7.8740   39.5734 H   0  0  0  0  0  0  0  0  0  0  0  0
    3.8252   -6.3118   37.9061 H   0  0  0  0  0  0  0  0  0  0  0  0
   -1.2659   -6.7006   36.5260 H   0  0  0  0  0  0  0  0  0  0  0  0
   -2.2308   -5.9006   35.4083 H   0  0  0  0  0  0  0  0  0  0  0  0
   -0.9325   -8.5134   35.1824 H   0  0  0  0  0  0  0  0  0  0  0  0
   -2.6036   -8.1220   34.9266 H   0  0  0  0  0  0  0  0  0  0  0  0
  1  2  2  0
  2  3  1  0
  3  4  1  0
  4  5  1  0
  5  6  1  0
  6  7  2  0
  7  8  1  0
  8  9  2  0
  9 10  1  0
 10 11  2  0
  5 12  2  0
 12 13  1  0
 13 14  2  0
 14 15  1  0
 15 16  1  0
 16 17  2  0
 17 18  1  0
 18 19  2  0
 19 20  1  0
 20 21  2  0
 21 22  1  0
 22 23  1  0
 23 24  1  0
 24 25  1  0
 25 26  1  0
 26 27  1  0
 27 28  1  0
 28 29  1  0
 29 30  2  0
 30 31  1  0
 31 32  2  0
 32 33  1  0
 33 34  2  0
 28 35  1  0
 35 36  2  0
 35 37  2  0
 24 38  1  0
 38 39  1  0
 14  4  1  0
 23 15  2  0
 35 24  1  0
 11  6  1  0
 22 18  1  0
 34 29  1  0
 39 21  1  0
  1 40  1  0
  1 41  1  0
  2 42  1  0
  3 43  1  0
  3 44  1  0
  7 45  1  0
  8 46  1  0
  9 47  1  0
 11 48  1  0
 16 49  1  0
 17 50  1  0
 25 51  1  0
 25 52  1  0
 26 53  1  0
 26 54  1  0
 27 55  1  0
 27 56  1  0
 28 57  1  0
 30 58  1  0
 31 59  1  0
 32 60  1  0
 33 61  1  0
 34 62  1  0
 38 63  1  0
 38 64  1  0
 39 65  1  0
 39 66  1  0
M  END
>  <Energy>  (11) 
182.90189877318278

>  <compound_id>  (11) 
2336

>  <target_id>  (11) 
1

>  <reference_id>  (11) 
163

>  <inspiration_ids>  (11) 
[163, 153]

>  <energy_score>  (11) 
-36.9425861773376

>  <distance_score>  (11) 
0.7594052245829158

>  <path>  (11) 
/opt/xchem-fragalysis-2/maxwin/BulkDock/SCRATCH/505736/C2336-P163/C2336-P163.minimised.mol

>  <scratch_subdir>  (11) 
/opt/xchem-fragalysis-2/maxwin/BulkDock/SCRATCH/505736/C2336-P163

>  <fragmenstein_runtime>  (11) 
8.192503690719604

>  <fragmenstein_outcome>  (11) 
acceptable

>  <fragmenstein_mode>  (11) 
expansion

>  <fragmenstein_error>  (11) 


$$$$
C2336-P153
     RDKit          3D

 66 72  0  0  0  0  0  0  0  0999 V2000
    0.7040   -3.1087   29.2112 C   0  0  0  0  0  0  0  0  0  0  0  0
    1.9817   -2.8638   29.5319 C   0  0  0  0  0  0  0  0  0  0  0  0
    2.5787   -2.6982   30.9007 C   0  0  0  0  0  0  0  0  0  0  0  0
    1.6454   -2.6575   32.0247 N   0  0  0  0  0  0  0  0  0  0  0  0
    1.2835   -1.4657   32.6265 C   0  0  0  0  0  0  0  0  0  0  0  0
    1.0996   -0.2122   31.9164 C   0  0  0  0  0  0  0  0  0  0  0  0
    1.9915    0.8474   32.0788 C   0  0  0  0  0  0  0  0  0  0  0  0
    1.8757    1.9742   31.2686 C   0  0  0  0  0  0  0  0  0  0  0  0
    0.8561    2.0084   30.3342 C   0  0  0  0  0  0  0  0  0  0  0  0
   -0.0669    1.0318   30.1980 N   0  0  0  0  0  0  0  0  0  0  0  0
    0.0762   -0.0558   30.9869 C   0  0  0  0  0  0  0  0  0  0  0  0
    1.2730   -1.6736   33.9243 N   0  0  0  0  0  0  0  0  0  0  0  0
    1.4313   -3.0261   34.1351 N   0  0  0  0  0  0  0  0  0  0  0  0
    1.3982   -3.6452   32.9752 C   0  0  0  0  0  0  0  0  0  0  0  0
    0.9595   -4.9690   32.6147 C   0  0  0  0  0  0  0  0  0  0  0  0
    1.2286   -5.5022   31.2676 C   0  0  0  0  0  0  0  0  0  0  0  0
    0.5085   -6.4536   30.6708 C   0  0  0  0  0  0  0  0  0  0  0  0
   -0.4357   -7.1377   31.4306 C   0  0  0  0  0  0  0  0  0  0  0  0
   -1.2808   -8.0912   31.1291 N   0  0  0  0  0  0  0  0  0  0  0  0
   -1.8457   -8.5019   32.3007 N   0  0  0  0  0  0  0  0  0  0  0  0
   -1.3228   -7.7918   33.2767 C   0  0  0  0  0  0  0  0  0  0  0  0
   -0.4648   -6.8524   32.7807 N   0  0  0  0  0  0  0  0  0  0  0  0
    0.1936   -5.7683   33.4378 C   0  0  0  0  0  0  0  0  0  0  0  0
   -0.1439   -5.6615   34.9792 C   0  0  0  0  0  0  0  0  0  0  0  0
   -0.5137   -4.2482   35.5799 C   0  0  0  0  0  0  0  0  0  0  0  0
    0.2653   -3.5637   36.7298 C   0  0  0  0  0  0  0  0  0  0  0  0
    1.3446   -4.3335   37.4885 C   0  0  0  0  0  0  0  0  0  0  0  0
    1.0139   -5.8058   37.5083 C   0  0  0  0  0  0  0  0  0  0  0  0
    1.6821   -6.6614   38.5533 C   0  0  0  0  0  0  0  0  0  0  0  0
    0.8722   -7.2217   39.5627 C   0  0  0  0  0  0  0  0  0  0  0  0
    1.4103   -8.0528   40.5408 C   0  0  0  0  0  0  0  0  0  0  0  0
    2.7702   -8.3349   40.5284 C   0  0  0  0  0  0  0  0  0  0  0  0
    3.5875   -7.7791   39.5437 C   0  0  0  0  0  0  0  0  0  0  0  0
    3.0510   -6.9392   38.5636 C   0  0  0  0  0  0  0  0  0  0  0  0
    1.2510   -6.4667   35.8611 S   0  0  0  0  0  0  0  0  0  0  0  0
    2.5074   -6.0295   35.2876 O   0  0  0  0  0  0  0  0  0  0  0  0
    1.0052   -7.8899   35.8977 O   0  0  0  0  0  0  0  0  0  0  0  0
   -1.3944   -6.5290   35.3540 C   0  0  0  0  0  0  0  0  0  0  0  0
   -1.5805   -7.8823   34.7113 C   0  0  0  0  0  0  0  0  0  0  0  0
    0.3860   -3.1595   28.1739 H   0  0  0  0  0  0  0  0  0  0  0  0
   -0.0881   -3.2237   29.9435 H   0  0  0  0  0  0  0  0  0  0  0  0
    2.6857   -2.7334   28.7101 H   0  0  0  0  0  0  0  0  0  0  0  0
    3.1497   -1.7616   30.9166 H   0  0  0  0  0  0  0  0  0  0  0  0
    3.3153   -3.4830   31.1047 H   0  0  0  0  0  0  0  0  0  0  0  0
    2.7972    0.7844   32.8068 H   0  0  0  0  0  0  0  0  0  0  0  0
    2.5754    2.7988   31.3519 H   0  0  0  0  0  0  0  0  0  0  0  0
    0.7485    2.8520   29.6560 H   0  0  0  0  0  0  0  0  0  0  0  0
   -0.6689   -0.8292   30.8228 H   0  0  0  0  0  0  0  0  0  0  0  0
    2.0887   -5.1483   30.7208 H   0  0  0  0  0  0  0  0  0  0  0  0
    0.7442   -6.8032   29.6815 H   0  0  0  0  0  0  0  0  0  0  0  0
   -0.7179   -3.5334   34.7751 H   0  0  0  0  0  0  0  0  0  0  0  0
   -1.5236   -4.3190   36.0116 H   0  0  0  0  0  0  0  0  0  0  0  0
    0.6888   -2.6122   36.3931 H   0  0  0  0  0  0  0  0  0  0  0  0
   -0.4840   -3.2551   37.4745 H   0  0  0  0  0  0  0  0  0  0  0  0
    2.3233   -4.1486   37.0301 H   0  0  0  0  0  0  0  0  0  0  0  0
    1.4101   -3.9350   38.5087 H   0  0  0  0  0  0  0  0  0  0  0  0
   -0.0590   -5.8976   37.7057 H   0  0  0  0  0  0  0  0  0  0  0  0
   -0.1990   -7.0320   39.5887 H   0  0  0  0  0  0  0  0  0  0  0  0
    0.7674   -8.4904   41.2993 H   0  0  0  0  0  0  0  0  0  0  0  0
    3.1978   -8.9890   41.2831 H   0  0  0  0  0  0  0  0  0  0  0  0
    4.6515   -8.0027   39.5364 H   0  0  0  0  0  0  0  0  0  0  0  0
    3.7112   -6.5250   37.8041 H   0  0  0  0  0  0  0  0  0  0  0  0
   -1.4776   -6.6520   36.4356 H   0  0  0  0  0  0  0  0  0  0  0  0
   -2.2426   -5.9511   35.0545 H   0  0  0  0  0  0  0  0  0  0  0  0
   -0.9187   -8.6003   35.1748 H   0  0  0  0  0  0  0  0  0  0  0  0
   -2.5977   -8.2444   34.8909 H   0  0  0  0  0  0  0  0  0  0  0  0
  1  2  2  0
  2  3  1  0
  3  4  1  0
  4  5  1  0
  5  6  1  0
  6  7  2  0
  7  8  1  0
  8  9  2  0
  9 10  1  0
 10 11  2  0
  5 12  2  0
 12 13  1  0
 13 14  2  0
 14 15  1  0
 15 16  1  0
 16 17  2  0
 17 18  1  0
 18 19  2  0
 19 20  1  0
 20 21  2  0
 21 22  1  0
 22 23  1  0
 23 24  1  0
 24 25  1  0
 25 26  1  0
 26 27  1  0
 27 28  1  0
 28 29  1  0
 29 30  2  0
 30 31  1  0
 31 32  2  0
 32 33  1  0
 33 34  2  0
 28 35  1  0
 35 36  2  0
 35 37  2  0
 24 38  1  0
 38 39  1  0
 14  4  1  0
 23 15  2  0
 35 24  1  0
 11  6  1  0
 22 18  1  0
 34 29  1  0
 39 21  1  0
  1 40  1  0
  1 41  1  0
  2 42  1  0
  3 43  1  0
  3 44  1  0
  7 45  1  0
  8 46  1  0
  9 47  1  0
 11 48  1  0
 16 49  1  0
 17 50  1  0
 25 51  1  0
 25 52  1  0
 26 53  1  0
 26 54  1  0
 27 55  1  0
 27 56  1  0
 28 57  1  0
 30 58  1  0
 31 59  1  0
 32 60  1  0
 33 61  1  0
 34 62  1  0
 38 63  1  0
 38 64  1  0
 39 65  1  0
 39 66  1  0
M  END
>  <Energy>  (12) 
180.510123445848

>  <compound_id>  (12) 
2336

>  <target_id>  (12) 
1

>  <reference_id>  (12) 
153

>  <inspiration_ids>  (12) 
[163, 153]

>  <energy_score>  (12) 
-39.33436150467196

>  <distance_score>  (12) 
0.7490394198261988

>  <path>  (12) 
/opt/xchem-fragalysis-2/maxwin/BulkDock/SCRATCH/505736/C2336-P153/C2336-P153.minimised.mol

>  <scratch_subdir>  (12) 
/opt/xchem-fragalysis-2/maxwin/BulkDock/SCRATCH/505736/C2336-P153

>  <fragmenstein_runtime>  (12) 
8.497778177261353

>  <fragmenstein_outcome>  (12) 
acceptable

>  <fragmenstein_mode>  (12) 
expansion

>  <fragmenstein_error>  (12) 


$$$$
C2337-P163
     RDKit          3D

 73 79  0  0  0  0  0  0  0  0999 V2000
    3.2078   -4.6440   25.9118 N   0  0  0  0  0  0  0  0  0  0  0  0
    3.0167   -3.9961   27.1924 C   0  0  0  0  0  0  0  0  0  0  0  0
    3.1112   -5.0970   28.2775 C   0  0  0  0  0  0  0  0  0  0  0  0
    1.9345   -5.0082   29.1474 N   0  0  0  0  0  0  0  0  0  0  0  0
    1.7904   -3.9493   30.0081 C   0  0  0  0  0  0  0  0  0  0  0  0
    2.8032   -3.2579   30.5437 C   0  0  0  0  0  0  0  0  0  0  0  0
    2.7244   -2.2249   31.6137 C   0  0  0  0  0  0  0  0  0  0  0  0
    1.5388   -2.3092   32.4415 N   0  0  0  0  0  0  0  0  0  0  0  0
    1.1389   -3.3598   33.2271 C   0  0  0  0  0  0  0  0  0  0  0  0
    1.9817   -4.8791   33.3084 S   0  0  0  0  0  0  0  0  0  0  0  0
    0.6651   -5.8822   33.8112 C   0  0  0  0  0  0  0  0  0  0  0  0
    0.3726   -5.9980   35.1222 C   0  0  0  0  0  0  0  0  0  0  0  0
   -0.7125   -6.8616   35.5416 C   0  0  0  0  0  0  0  0  0  0  0  0
   -1.4404   -7.5522   34.6476 C   0  0  0  0  0  0  0  0  0  0  0  0
   -1.1392   -7.4587   33.2633 C   0  0  0  0  0  0  0  0  0  0  0  0
   -1.6546   -8.0363   32.1963 N   0  0  0  0  0  0  0  0  0  0  0  0
   -0.9533   -7.6040   31.0986 N   0  0  0  0  0  0  0  0  0  0  0  0
   -0.0216   -6.7840   31.5319 C   0  0  0  0  0  0  0  0  0  0  0  0
   -0.0930   -6.6277   32.8922 N   0  0  0  0  0  0  0  0  0  0  0  0
    0.0262   -3.0392   33.8424 N   0  0  0  0  0  0  0  0  0  0  0  0
   -0.3434   -1.7832   33.4191 N   0  0  0  0  0  0  0  0  0  0  0  0
    0.5573   -1.3510   32.5594 C   0  0  0  0  0  0  0  0  0  0  0  0
    0.4923   -0.1256   31.7840 C   0  0  0  0  0  0  0  0  0  0  0  0
    1.3782    0.9344   31.9933 C   0  0  0  0  0  0  0  0  0  0  0  0
    1.3391    2.0412   31.1480 C   0  0  0  0  0  0  0  0  0  0  0  0
    0.4077    2.0518   30.1239 C   0  0  0  0  0  0  0  0  0  0  0  0
   -0.4827    1.0577   29.9143 N   0  0  0  0  0  0  0  0  0  0  0  0
   -0.4280   -0.0033   30.7505 C   0  0  0  0  0  0  0  0  0  0  0  0
    3.9756   -2.8638   27.2535 C   0  0  0  0  0  0  0  0  0  0  0  0
    3.5250   -1.6148   26.9148 O   0  0  0  0  0  0  0  0  0  0  0  0
    4.6528   -0.8604   26.8377 C   0  0  0  0  0  0  0  0  0  0  0  0
    5.7609   -1.4848   27.1636 N   0  0  0  0  0  0  0  0  0  0  0  0
    5.3333   -2.7621   27.4393 C   0  0  0  0  0  0  0  0  0  0  0  0
    6.1557   -3.8801   27.8257 C   0  0  0  0  0  0  0  0  0  0  0  0
    6.5149   -3.9953   28.9326 O   0  0  0  0  0  0  0  0  0  0  0  0
    6.3289   -4.8266   26.6083 N   0  0  0  0  0  0  0  0  0  0  0  0
    6.8668   -6.0830   26.5281 C   0  0  0  0  0  0  0  0  0  0  0  0
    6.5356   -6.8344   25.4605 C   0  0  0  0  0  0  0  0  0  0  0  0
    6.8496   -8.1641   25.3550 N   0  0  0  0  0  0  0  0  0  0  0  0
    7.4962   -8.8748   26.3371 C   0  0  0  0  0  0  0  0  0  0  0  0
    7.7318  -10.0733   26.2364 O   0  0  0  0  0  0  0  0  0  0  0  0
    7.9298   -8.0898   27.5233 C   0  0  0  0  0  0  0  0  0  0  0  0
    8.6638   -8.7287   28.5256 C   0  0  0  0  0  0  0  0  0  0  0  0
    9.1982   -7.9961   29.5831 C   0  0  0  0  0  0  0  0  0  0  0  0
    9.0631   -6.6194   29.5958 C   0  0  0  0  0  0  0  0  0  0  0  0
    8.3693   -5.9880   28.5662 C   0  0  0  0  0  0  0  0  0  0  0  0
    7.7000   -6.7077   27.5697 C   0  0  0  0  0  0  0  0  0  0  0  0
    3.0829   -3.9956   25.1416 H   0  0  0  0  0  0  0  0  0  0  0  0
    2.6596   -5.4890   25.8014 H   0  0  0  0  0  0  0  0  0  0  0  0
    2.0221   -3.5599   27.2648 H   0  0  0  0  0  0  0  0  0  0  0  0
    4.0378   -5.0791   28.8558 H   0  0  0  0  0  0  0  0  0  0  0  0
    3.0730   -6.1006   27.8343 H   0  0  0  0  0  0  0  0  0  0  0  0
    1.0600   -5.2183   28.6551 H   0  0  0  0  0  0  0  0  0  0  0  0
    0.7502   -3.7517   30.2665 H   0  0  0  0  0  0  0  0  0  0  0  0
    3.8306   -3.4943   30.2781 H   0  0  0  0  0  0  0  0  0  0  0  0
    3.5750   -2.3366   32.2975 H   0  0  0  0  0  0  0  0  0  0  0  0
    2.8116   -1.2341   31.1635 H   0  0  0  0  0  0  0  0  0  0  0  0
    0.9103   -5.4546   35.8945 H   0  0  0  0  0  0  0  0  0  0  0  0
   -0.9111   -6.9285   36.6061 H   0  0  0  0  0  0  0  0  0  0  0  0
   -2.2419   -8.2099   34.9557 H   0  0  0  0  0  0  0  0  0  0  0  0
    0.7257   -6.3042   30.9273 H   0  0  0  0  0  0  0  0  0  0  0  0
    2.1039    0.9023   32.8020 H   0  0  0  0  0  0  0  0  0  0  0  0
    2.0178    2.8765   31.2832 H   0  0  0  0  0  0  0  0  0  0  0  0
    0.3354    2.8914   29.4365 H   0  0  0  0  0  0  0  0  0  0  0  0
   -1.1530   -0.7858   30.5393 H   0  0  0  0  0  0  0  0  0  0  0  0
    4.5258    0.1662   26.5241 H   0  0  0  0  0  0  0  0  0  0  0  0
    5.9633   -4.3770   25.7741 H   0  0  0  0  0  0  0  0  0  0  0  0
    5.9337   -6.4548   24.6411 H   0  0  0  0  0  0  0  0  0  0  0  0
    6.4989   -8.6899   24.5461 H   0  0  0  0  0  0  0  0  0  0  0  0
    8.8393   -9.7971   28.4554 H   0  0  0  0  0  0  0  0  0  0  0  0
    9.7812   -8.4847   30.3577 H   0  0  0  0  0  0  0  0  0  0  0  0
    9.5424   -6.0260   30.3699 H   0  0  0  0  0  0  0  0  0  0  0  0
    8.4231   -4.9061   28.5399 H   0  0  0  0  0  0  0  0  0  0  0  0
  1  2  1  0
  2  3  1  0
  3  4  1  0
  4  5  1  0
  5  6  2  3
  6  7  1  0
  7  8  1  0
  8  9  1  0
  9 10  1  0
 10 11  1  0
 11 12  2  0
 12 13  1  0
 13 14  2  0
 14 15  1  0
 15 16  2  0
 16 17  1  0
 17 18  2  0
 18 19  1  0
  9 20  2  0
 20 21  1  0
 21 22  2  0
 22 23  1  0
 23 24  2  0
 24 25  1  0
 25 26  2  0
 26 27  1  0
 27 28  2  0
  2 29  1  0
 29 30  1  0
 30 31  1  0
 31 32  2  0
 32 33  1  0
 33 34  1  0
 34 35  2  0
 34 36  1  0
 36 37  1  0
 37 38  2  0
 38 39  1  0
 39 40  1  0
 40 41  2  0
 40 42  1  0
 42 43  2  0
 43 44  1  0
 44 45  2  0
 45 46  1  0
 46 47  2  0
 22  8  1  0
 28 23  1  0
 33 29  2  0
 47 37  1  0
 19 11  1  0
 47 42  1  0
 19 15  1  0
  1 48  1  0
  1 49  1  0
  2 50  1  0
  3 51  1  0
  3 52  1  0
  4 53  1  0
  5 54  1  0
  6 55  1  0
  7 56  1  0
  7 57  1  0
 12 58  1  0
 13 59  1  0
 14 60  1  0
 18 61  1  0
 24 62  1  0
 25 63  1  0
 26 64  1  0
 28 65  1  0
 31 66  1  0
 36 67  1  0
 38 68  1  0
 39 69  1  0
 43 70  1  0
 44 71  1  0
 45 72  1  0
 46 73  1  0
M  END
>  <Energy>  (13) 
185.28997288036075

>  <compound_id>  (13) 
2337

>  <target_id>  (13) 
1

>  <reference_id>  (13) 
163

>  <inspiration_ids>  (13) 
[163, 154]

>  <energy_score>  (13) 
-59.74873146056683

>  <distance_score>  (13) 
1.1454742493327934

>  <path>  (13) 
/opt/xchem-fragalysis-2/maxwin/BulkDock/SCRATCH/505736/C2337-P163/C2337-P163.minimised.mol

>  <scratch_subdir>  (13) 
/opt/xchem-fragalysis-2/maxwin/BulkDock/SCRATCH/505736/C2337-P163

>  <fragmenstein_runtime>  (13) 
11.288116693496704

>  <fragmenstein_outcome>  (13) 
too moved

>  <fragmenstein_mode>  (13) 
expansion

>  <fragmenstein_error>  (13) 


$$$$
C2337-P154
     RDKit          3D

 73 79  0  0  0  0  0  0  0  0999 V2000
    1.1829   -3.7167   25.7794 N   0  0  0  0  0  0  0  0  0  0  0  0
    1.6356   -2.5963   26.5923 C   0  0  0  0  0  0  0  0  0  0  0  0
    1.0015   -2.5626   28.0059 C   0  0  0  0  0  0  0  0  0  0  0  0
    1.0523   -3.8613   28.7005 N   0  0  0  0  0  0  0  0  0  0  0  0
    2.2140   -4.3465   29.2352 C   0  0  0  0  0  0  0  0  0  0  0  0
    3.0190   -3.8138   30.1575 C   0  0  0  0  0  0  0  0  0  0  0  0
    2.8174   -2.5652   30.9631 C   0  0  0  0  0  0  0  0  0  0  0  0
    1.6952   -2.5875   31.8913 N   0  0  0  0  0  0  0  0  0  0  0  0
    1.3715   -3.5507   32.8107 C   0  0  0  0  0  0  0  0  0  0  0  0
    2.2095   -5.0559   32.9819 S   0  0  0  0  0  0  0  0  0  0  0  0
    0.8917   -5.9968   33.5847 C   0  0  0  0  0  0  0  0  0  0  0  0
    0.7204   -6.1457   34.9143 C   0  0  0  0  0  0  0  0  0  0  0  0
   -0.3712   -6.9606   35.4089 C   0  0  0  0  0  0  0  0  0  0  0  0
   -1.1937   -7.6033   34.5630 C   0  0  0  0  0  0  0  0  0  0  0  0
   -0.9981   -7.5009   33.1591 C   0  0  0  0  0  0  0  0  0  0  0  0
   -1.5967   -8.0604   32.1264 N   0  0  0  0  0  0  0  0  0  0  0  0
   -1.0267   -7.5617   30.9809 N   0  0  0  0  0  0  0  0  0  0  0  0
   -0.0797   -6.7254   31.3475 C   0  0  0  0  0  0  0  0  0  0  0  0
    0.0163   -6.6674   32.7160 N   0  0  0  0  0  0  0  0  0  0  0  0
    0.3641   -3.1462   33.5469 N   0  0  0  0  0  0  0  0  0  0  0  0
   -0.0080   -1.9069   33.1020 N   0  0  0  0  0  0  0  0  0  0  0  0
    0.7900   -1.5656   32.1090 C   0  0  0  0  0  0  0  0  0  0  0  0
    0.6855   -0.3336   31.3521 C   0  0  0  0  0  0  0  0  0  0  0  0
    1.6386    0.6823   31.4439 C   0  0  0  0  0  0  0  0  0  0  0  0
    1.4940    1.8295   30.6667 C   0  0  0  0  0  0  0  0  0  0  0  0
    0.3978    1.9192   29.8240 C   0  0  0  0  0  0  0  0  0  0  0  0
   -0.5537    0.9639   29.7269 N   0  0  0  0  0  0  0  0  0  0  0  0
   -0.3969   -0.1322   30.5039 C   0  0  0  0  0  0  0  0  0  0  0  0
    3.1094   -2.4092   26.5784 C   0  0  0  0  0  0  0  0  0  0  0  0
    3.5387   -1.1046   26.5792 O   0  0  0  0  0  0  0  0  0  0  0  0
    4.8900   -1.1926   26.5155 C   0  0  0  0  0  0  0  0  0  0  0  0
    5.3716   -2.4124   26.5541 N   0  0  0  0  0  0  0  0  0  0  0  0
    4.2329   -3.2092   26.5211 C   0  0  0  0  0  0  0  0  0  0  0  0
    4.2975   -4.6653   26.4012 C   0  0  0  0  0  0  0  0  0  0  0  0
    3.3548   -5.3038   26.1582 O   0  0  0  0  0  0  0  0  0  0  0  0
    5.7648   -5.0806   26.5648 N   0  0  0  0  0  0  0  0  0  0  0  0
    6.3376   -6.3068   26.5585 C   0  0  0  0  0  0  0  0  0  0  0  0
    6.0590   -7.1904   25.5918 C   0  0  0  0  0  0  0  0  0  0  0  0
    6.6693   -8.4145   25.5319 N   0  0  0  0  0  0  0  0  0  0  0  0
    7.5753   -8.8741   26.4584 C   0  0  0  0  0  0  0  0  0  0  0  0
    8.1385   -9.9569   26.3537 O   0  0  0  0  0  0  0  0  0  0  0  0
    7.8256   -7.9759   27.6204 C   0  0  0  0  0  0  0  0  0  0  0  0
    8.6062   -8.4249   28.6898 C   0  0  0  0  0  0  0  0  0  0  0  0
    8.7946   -7.6086   29.8054 C   0  0  0  0  0  0  0  0  0  0  0  0
    8.2158   -6.3421   29.8496 C   0  0  0  0  0  0  0  0  0  0  0  0
    7.4477   -5.8866   28.7769 C   0  0  0  0  0  0  0  0  0  0  0  0
    7.2419   -6.6987   27.6489 C   0  0  0  0  0  0  0  0  0  0  0  0
    1.1780   -3.4226   24.7997 H   0  0  0  0  0  0  0  0  0  0  0  0
    1.8151   -4.5146   25.8702 H   0  0  0  0  0  0  0  0  0  0  0  0
    1.2599   -1.6936   26.1271 H   0  0  0  0  0  0  0  0  0  0  0  0
   -0.0612   -2.3120   27.9081 H   0  0  0  0  0  0  0  0  0  0  0  0
    1.4467   -1.7675   28.6085 H   0  0  0  0  0  0  0  0  0  0  0  0
    0.6399   -4.5369   28.0347 H   0  0  0  0  0  0  0  0  0  0  0  0
    2.4790   -5.3136   28.8050 H   0  0  0  0  0  0  0  0  0  0  0  0
    3.9261   -4.3671   30.3970 H   0  0  0  0  0  0  0  0  0  0  0  0
    3.7060   -2.3944   31.5844 H   0  0  0  0  0  0  0  0  0  0  0  0
    2.7404   -1.6985   30.3046 H   0  0  0  0  0  0  0  0  0  0  0  0
    1.3555   -5.6575   35.6479 H   0  0  0  0  0  0  0  0  0  0  0  0
   -0.5145   -7.0256   36.4839 H   0  0  0  0  0  0  0  0  0  0  0  0
   -2.0157   -8.2004   34.9339 H   0  0  0  0  0  0  0  0  0  0  0  0
    0.5480   -6.1531   30.6827 H   0  0  0  0  0  0  0  0  0  0  0  0
    2.4855    0.5927   32.1189 H   0  0  0  0  0  0  0  0  0  0  0  0
    2.2161    2.6374   30.7175 H   0  0  0  0  0  0  0  0  0  0  0  0
    0.2415    2.7946   29.1975 H   0  0  0  0  0  0  0  0  0  0  0  0
   -1.1815   -0.8792   30.4058 H   0  0  0  0  0  0  0  0  0  0  0  0
    5.4342   -0.2610   26.4567 H   0  0  0  0  0  0  0  0  0  0  0  0
    6.3410   -4.2493   26.6946 H   0  0  0  0  0  0  0  0  0  0  0  0
    5.3838   -6.9716   24.7674 H   0  0  0  0  0  0  0  0  0  0  0  0
    6.4468   -9.0102   24.7271 H   0  0  0  0  0  0  0  0  0  0  0  0
    9.0567   -9.4143   28.6519 H   0  0  0  0  0  0  0  0  0  0  0  0
    9.4024   -7.9584   30.6362 H   0  0  0  0  0  0  0  0  0  0  0  0
    8.3701   -5.7062   30.7178 H   0  0  0  0  0  0  0  0  0  0  0  0
    7.0009   -4.8984   28.8435 H   0  0  0  0  0  0  0  0  0  0  0  0
  1  2  1  0
  2  3  1  0
  3  4  1  0
  4  5  1  0
  5  6  2  3
  6  7  1  0
  7  8  1  0
  8  9  1  0
  9 10  1  0
 10 11  1  0
 11 12  2  0
 12 13  1  0
 13 14  2  0
 14 15  1  0
 15 16  2  0
 16 17  1  0
 17 18  2  0
 18 19  1  0
  9 20  2  0
 20 21  1  0
 21 22  2  0
 22 23  1  0
 23 24  2  0
 24 25  1  0
 25 26  2  0
 26 27  1  0
 27 28  2  0
  2 29  1  0
 29 30  1  0
 30 31  1  0
 31 32  2  0
 32 33  1  0
 33 34  1  0
 34 35  2  0
 34 36  1  0
 36 37  1  0
 37 38  2  0
 38 39  1  0
 39 40  1  0
 40 41  2  0
 40 42  1  0
 42 43  2  0
 43 44  1  0
 44 45  2  0
 45 46  1  0
 46 47  2  0
 22  8  1  0
 28 23  1  0
 33 29  2  0
 47 37  1  0
 19 11  1  0
 47 42  1  0
 19 15  1  0
  1 48  1  0
  1 49  1  0
  2 50  1  0
  3 51  1  0
  3 52  1  0
  4 53  1  0
  5 54  1  0
  6 55  1  0
  7 56  1  0
  7 57  1  0
 12 58  1  0
 13 59  1  0
 14 60  1  0
 18 61  1  0
 24 62  1  0
 25 63  1  0
 26 64  1  0
 28 65  1  0
 31 66  1  0
 36 67  1  0
 38 68  1  0
 39 69  1  0
 43 70  1  0
 44 71  1  0
 45 72  1  0
 46 73  1  0
M  END
>  <Energy>  (14) 
165.68338725499001

>  <compound_id>  (14) 
2337

>  <target_id>  (14) 
1

>  <reference_id>  (14) 
154

>  <inspiration_ids>  (14) 
[163, 154]

>  <energy_score>  (14) 
-79.35531708593606

>  <distance_score>  (14) 
0.5695439483607696

>  <path>  (14) 
/opt/xchem-fragalysis-2/maxwin/BulkDock/SCRATCH/505736/C2337-P154/C2337-P154.minimised.mol

>  <scratch_subdir>  (14) 
/opt/xchem-fragalysis-2/maxwin/BulkDock/SCRATCH/505736/C2337-P154

>  <fragmenstein_runtime>  (14) 
10.19467306137085

>  <fragmenstein_outcome>  (14) 
acceptable

>  <fragmenstein_mode>  (14) 
expansion

>  <fragmenstein_error>  (14) 


$$$$
C2338-P163
     RDKit          3D

 73 79  0  0  0  0  0  0  0  0999 V2000
    1.3517   -3.9277   28.9182 C   0  0  0  0  0  0  0  0  0  0  0  0
    2.2712   -3.6389   29.8472 C   0  0  0  0  0  0  0  0  0  0  0  0
    2.3209   -2.3657   30.6336 C   0  0  0  0  0  0  0  0  0  0  0  0
    3.7175   -1.9372   30.8451 N   0  0  0  0  0  0  0  0  0  0  0  0
    4.0746   -0.9640   29.8254 C   0  0  0  0  0  0  0  0  0  0  0  0
    5.5138   -0.8942   29.7314 N   0  0  0  0  0  0  0  0  0  0  0  0
    6.1331   -1.8836   28.8525 C   0  0  0  0  0  0  0  0  0  0  0  0
    5.4948   -2.0258   27.5237 C   0  0  0  0  0  0  0  0  0  0  0  0
    5.2736   -0.9196   26.7568 O   0  0  0  0  0  0  0  0  0  0  0  0
    4.7445   -1.4307   25.6118 C   0  0  0  0  0  0  0  0  0  0  0  0
    4.6388   -2.7449   25.5706 N   0  0  0  0  0  0  0  0  0  0  0  0
    5.0672   -3.1271   26.8178 C   0  0  0  0  0  0  0  0  0  0  0  0
    5.2448   -4.4803   27.3057 C   0  0  0  0  0  0  0  0  0  0  0  0
    4.9289   -4.7684   28.3899 O   0  0  0  0  0  0  0  0  0  0  0  0
    5.9614   -5.3029   26.2259 N   0  0  0  0  0  0  0  0  0  0  0  0
    6.4956   -6.5487   26.2764 C   0  0  0  0  0  0  0  0  0  0  0  0
    6.4447   -7.3332   25.1964 C   0  0  0  0  0  0  0  0  0  0  0  0
    6.9427   -8.6058   25.2009 N   0  0  0  0  0  0  0  0  0  0  0  0
    7.5766   -9.1938   26.2646 C   0  0  0  0  0  0  0  0  0  0  0  0
    7.9776  -10.3504   26.2302 O   0  0  0  0  0  0  0  0  0  0  0  0
    7.7649   -8.3281   27.4568 C   0  0  0  0  0  0  0  0  0  0  0  0
    8.5474   -8.7936   28.5162 C   0  0  0  0  0  0  0  0  0  0  0  0
    8.7913   -7.9823   29.6232 C   0  0  0  0  0  0  0  0  0  0  0  0
    8.2723   -6.6997   29.6633 C   0  0  0  0  0  0  0  0  0  0  0  0
    7.5271   -6.2246   28.5847 C   0  0  0  0  0  0  0  0  0  0  0  0
    7.2246   -7.0334   27.4740 C   0  0  0  0  0  0  0  0  0  0  0  0
    1.6228   -2.4066   31.9263 N   0  0  0  0  0  0  0  0  0  0  0  0
    1.4554   -3.4094   32.8455 C   0  0  0  0  0  0  0  0  0  0  0  0
    2.1283   -5.0012   32.7362 S   0  0  0  0  0  0  0  0  0  0  0  0
    0.8041   -5.9007   33.4071 C   0  0  0  0  0  0  0  0  0  0  0  0
    0.6126   -5.9671   34.7417 C   0  0  0  0  0  0  0  0  0  0  0  0
   -0.4743   -6.7694   35.2765 C   0  0  0  0  0  0  0  0  0  0  0  0
   -1.2821   -7.4760   34.4669 C   0  0  0  0  0  0  0  0  0  0  0  0
   -1.0778   -7.4455   33.0617 C   0  0  0  0  0  0  0  0  0  0  0  0
   -1.6721   -8.0601   32.0595 N   0  0  0  0  0  0  0  0  0  0  0  0
   -1.0650   -7.6595   30.8946 N   0  0  0  0  0  0  0  0  0  0  0  0
   -0.1126   -6.8130   31.2184 C   0  0  0  0  0  0  0  0  0  0  0  0
   -0.0527   -6.6445   32.5788 N   0  0  0  0  0  0  0  0  0  0  0  0
    0.7335   -2.9711   33.8523 N   0  0  0  0  0  0  0  0  0  0  0  0
    0.3727   -1.6771   33.5903 N   0  0  0  0  0  0  0  0  0  0  0  0
    0.8806   -1.3413   32.4244 C   0  0  0  0  0  0  0  0  0  0  0  0
    0.6966   -0.0728   31.7450 C   0  0  0  0  0  0  0  0  0  0  0  0
    1.5632    0.9989   31.9627 C   0  0  0  0  0  0  0  0  0  0  0  0
    1.4437    2.1460   31.1820 C   0  0  0  0  0  0  0  0  0  0  0  0
    0.4557    2.1799   30.2133 C   0  0  0  0  0  0  0  0  0  0  0  0
   -0.4203    1.1723   30.0056 N   0  0  0  0  0  0  0  0  0  0  0  0
   -0.2942    0.0758   30.7819 C   0  0  0  0  0  0  0  0  0  0  0  0
    1.4294   -4.8499   28.3552 H   0  0  0  0  0  0  0  0  0  0  0  0
    0.5311   -3.2573   28.6727 H   0  0  0  0  0  0  0  0  0  0  0  0
    3.0843   -4.3444   30.0060 H   0  0  0  0  0  0  0  0  0  0  0  0
    1.7819   -1.6139   30.0452 H   0  0  0  0  0  0  0  0  0  0  0  0
    3.8048   -1.4751   31.7471 H   0  0  0  0  0  0  0  0  0  0  0  0
    3.7100    0.0218   30.1345 H   0  0  0  0  0  0  0  0  0  0  0  0
    3.5989   -1.1584   28.8587 H   0  0  0  0  0  0  0  0  0  0  0  0
    5.9081   -0.9924   30.6617 H   0  0  0  0  0  0  0  0  0  0  0  0
    7.1792   -1.5930   28.7009 H   0  0  0  0  0  0  0  0  0  0  0  0
    6.1625   -2.8438   29.3770 H   0  0  0  0  0  0  0  0  0  0  0  0
    4.4813   -0.7122   24.8507 H   0  0  0  0  0  0  0  0  0  0  0  0
    6.1543   -4.7103   25.4192 H   0  0  0  0  0  0  0  0  0  0  0  0
    5.9433   -7.0363   24.2795 H   0  0  0  0  0  0  0  0  0  0  0  0
    6.7167   -9.1938   24.3953 H   0  0  0  0  0  0  0  0  0  0  0  0
    8.9865   -9.7847   28.4575 H   0  0  0  0  0  0  0  0  0  0  0  0
    9.4131   -8.3350   30.4405 H   0  0  0  0  0  0  0  0  0  0  0  0
    8.4833   -6.0504   30.5087 H   0  0  0  0  0  0  0  0  0  0  0  0
    7.2355   -5.1837   28.6279 H   0  0  0  0  0  0  0  0  0  0  0  0
    1.2355   -5.4269   35.4499 H   0  0  0  0  0  0  0  0  0  0  0  0
   -0.6110   -6.7830   36.3543 H   0  0  0  0  0  0  0  0  0  0  0  0
   -2.0819   -8.0894   34.8605 H   0  0  0  0  0  0  0  0  0  0  0  0
    0.5486   -6.3137   30.5277 H   0  0  0  0  0  0  0  0  0  0  0  0
    2.3400    0.9412   32.7211 H   0  0  0  0  0  0  0  0  0  0  0  0
    2.1079    2.9925   31.3201 H   0  0  0  0  0  0  0  0  0  0  0  0
    0.3235    3.0489   29.5723 H   0  0  0  0  0  0  0  0  0  0  0  0
   -1.0118   -0.7137   30.5716 H   0  0  0  0  0  0  0  0  0  0  0  0
  1  2  2  0
  2  3  1  0
  3  4  1  0
  4  5  1  0
  5  6  1  0
  6  7  1  0
  7  8  1  0
  8  9  1  0
  9 10  1  0
 10 11  2  0
 11 12  1  0
 12 13  1  0
 13 14  2  0
 13 15  1  0
 15 16  1  0
 16 17  2  0
 17 18  1  0
 18 19  1  0
 19 20  2  0
 19 21  1  0
 21 22  2  0
 22 23  1  0
 23 24  2  0
 24 25  1  0
 25 26  2  0
  3 27  1  0
 27 28  1  0
 28 29  1  0
 29 30  1  0
 30 31  2  0
 31 32  1  0
 32 33  2  0
 33 34  1  0
 34 35  2  0
 35 36  1  0
 36 37  2  0
 37 38  1  0
 28 39  2  0
 39 40  1  0
 40 41  2  0
 41 42  1  0
 42 43  2  0
 43 44  1  0
 44 45  2  0
 45 46  1  0
 46 47  2  0
 12  8  2  0
 26 16  1  0
 41 27  1  0
 47 42  1  0
 26 21  1  0
 38 30  1  0
 38 34  1  0
  1 48  1  0
  1 49  1  0
  2 50  1  0
  3 51  1  0
  4 52  1  0
  5 53  1  0
  5 54  1  0
  6 55  1  0
  7 56  1  0
  7 57  1  0
 10 58  1  0
 15 59  1  0
 17 60  1  0
 18 61  1  0
 22 62  1  0
 23 63  1  0
 24 64  1  0
 25 65  1  0
 31 66  1  0
 32 67  1  0
 33 68  1  0
 37 69  1  0
 43 70  1  0
 44 71  1  0
 45 72  1  0
 47 73  1  0
M  END
>  <Energy>  (15) 
86.510823433794073

>  <compound_id>  (15) 
2338

>  <target_id>  (15) 
1

>  <reference_id>  (15) 
163

>  <inspiration_ids>  (15) 
[163, 155]

>  <energy_score>  (15) 
-69.39256587821689

>  <distance_score>  (15) 
0.6908533673502002

>  <path>  (15) 
/opt/xchem-fragalysis-2/maxwin/BulkDock/SCRATCH/505736/C2338-P163/C2338-P163.minimised.mol

>  <scratch_subdir>  (15) 
/opt/xchem-fragalysis-2/maxwin/BulkDock/SCRATCH/505736/C2338-P163

>  <fragmenstein_runtime>  (15) 
13.632787704467773

>  <fragmenstein_outcome>  (15) 
acceptable

>  <fragmenstein_mode>  (15) 
expansion

>  <fragmenstein_error>  (15) 


$$$$
C2338-P155
     RDKit          3D

 73 79  0  0  0  0  0  0  0  0999 V2000
    0.8353   -3.5007   29.0392 C   0  0  0  0  0  0  0  0  0  0  0  0
    1.9309   -3.5398   29.8092 C   0  0  0  0  0  0  0  0  0  0  0  0
    2.3425   -2.4179   30.7204 C   0  0  0  0  0  0  0  0  0  0  0  0
    3.7908   -2.3892   30.9325 N   0  0  0  0  0  0  0  0  0  0  0  0
    4.4125   -1.5469   29.9266 C   0  0  0  0  0  0  0  0  0  0  0  0
    5.7514   -2.0637   29.7787 N   0  0  0  0  0  0  0  0  0  0  0  0
    6.3866   -1.5848   28.5432 C   0  0  0  0  0  0  0  0  0  0  0  0
    5.6428   -1.9691   27.3217 C   0  0  0  0  0  0  0  0  0  0  0  0
    5.1546   -0.9762   26.5253 O   0  0  0  0  0  0  0  0  0  0  0  0
    4.5376   -1.6491   25.5162 C   0  0  0  0  0  0  0  0  0  0  0  0
    4.5852   -2.9630   25.5975 N   0  0  0  0  0  0  0  0  0  0  0  0
    5.2664   -3.1758   26.7776 C   0  0  0  0  0  0  0  0  0  0  0  0
    5.5762   -4.4659   27.3705 C   0  0  0  0  0  0  0  0  0  0  0  0
    5.3648   -4.6693   28.5004 O   0  0  0  0  0  0  0  0  0  0  0  0
    6.2661   -5.3434   26.3101 N   0  0  0  0  0  0  0  0  0  0  0  0
    6.7321   -6.6235   26.3853 C   0  0  0  0  0  0  0  0  0  0  0  0
    6.6860   -7.3675   25.2725 C   0  0  0  0  0  0  0  0  0  0  0  0
    7.0272   -8.6906   25.2568 N   0  0  0  0  0  0  0  0  0  0  0  0
    7.4371   -9.4011   26.3559 C   0  0  0  0  0  0  0  0  0  0  0  0
    7.6839  -10.5996   26.3049 O   0  0  0  0  0  0  0  0  0  0  0  0
    7.5648   -8.6252   27.6175 C   0  0  0  0  0  0  0  0  0  0  0  0
    8.0240   -9.2804   28.7694 C   0  0  0  0  0  0  0  0  0  0  0  0
    8.2494   -8.5564   29.9355 C   0  0  0  0  0  0  0  0  0  0  0  0
    8.0526   -7.1802   29.9364 C   0  0  0  0  0  0  0  0  0  0  0  0
    7.5875   -6.5345   28.7853 C   0  0  0  0  0  0  0  0  0  0  0  0
    7.2698   -7.2474   27.6200 C   0  0  0  0  0  0  0  0  0  0  0  0
    1.6572   -2.4410   32.0151 N   0  0  0  0  0  0  0  0  0  0  0  0
    1.4788   -3.4524   32.9191 C   0  0  0  0  0  0  0  0  0  0  0  0
    2.1211   -5.0511   32.7510 S   0  0  0  0  0  0  0  0  0  0  0  0
    0.7752   -5.9464   33.3814 C   0  0  0  0  0  0  0  0  0  0  0  0
    0.5511   -6.0266   34.7100 C   0  0  0  0  0  0  0  0  0  0  0  0
   -0.5615   -6.8168   35.2063 C   0  0  0  0  0  0  0  0  0  0  0  0
   -1.3717   -7.4851   34.3669 C   0  0  0  0  0  0  0  0  0  0  0  0
   -1.1370   -7.4380   32.9670 C   0  0  0  0  0  0  0  0  0  0  0  0
   -1.7305   -8.0097   31.9381 N   0  0  0  0  0  0  0  0  0  0  0  0
   -1.0787   -7.6149   30.7956 N   0  0  0  0  0  0  0  0  0  0  0  0
   -0.1048   -6.8093   31.1583 C   0  0  0  0  0  0  0  0  0  0  0  0
   -0.0758   -6.6620   32.5227 N   0  0  0  0  0  0  0  0  0  0  0  0
    0.7755   -3.0133   33.9388 N   0  0  0  0  0  0  0  0  0  0  0  0
    0.4322   -1.7080   33.6913 N   0  0  0  0  0  0  0  0  0  0  0  0
    0.9362   -1.3706   32.5239 C   0  0  0  0  0  0  0  0  0  0  0  0
    0.7574   -0.1082   31.8326 C   0  0  0  0  0  0  0  0  0  0  0  0
    1.6670    0.9392   31.9859 C   0  0  0  0  0  0  0  0  0  0  0  0
    1.5660    2.0591   31.1641 C   0  0  0  0  0  0  0  0  0  0  0  0
    0.5605    2.0861   30.2133 C   0  0  0  0  0  0  0  0  0  0  0  0
   -0.3497    1.0984   30.0612 N   0  0  0  0  0  0  0  0  0  0  0  0
   -0.2469    0.0335   30.8829 C   0  0  0  0  0  0  0  0  0  0  0  0
    0.5809   -4.3140   28.3739 H   0  0  0  0  0  0  0  0  0  0  0  0
    0.1603   -2.6481   29.0243 H   0  0  0  0  0  0  0  0  0  0  0  0
    2.5903   -4.4032   29.7464 H   0  0  0  0  0  0  0  0  0  0  0  0
    2.0375   -1.4854   30.2341 H   0  0  0  0  0  0  0  0  0  0  0  0
    4.0324   -2.0007   31.8407 H   0  0  0  0  0  0  0  0  0  0  0  0
    4.4264   -0.5004   30.2523 H   0  0  0  0  0  0  0  0  0  0  0  0
    3.8510   -1.5966   28.9882 H   0  0  0  0  0  0  0  0  0  0  0  0
    5.6604   -3.0840   29.7256 H   0  0  0  0  0  0  0  0  0  0  0  0
    6.5080   -0.4962   28.5939 H   0  0  0  0  0  0  0  0  0  0  0  0
    7.3978   -2.0045   28.4918 H   0  0  0  0  0  0  0  0  0  0  0  0
    4.0920   -1.0402   24.7474 H   0  0  0  0  0  0  0  0  0  0  0  0
    6.2065   -4.8872   25.3997 H   0  0  0  0  0  0  0  0  0  0  0  0
    6.2965   -6.9857   24.3311 H   0  0  0  0  0  0  0  0  0  0  0  0
    6.7940   -9.2194   24.4133 H   0  0  0  0  0  0  0  0  0  0  0  0
    8.2211  -10.3511   28.7519 H   0  0  0  0  0  0  0  0  0  0  0  0
    8.6094   -9.0637   30.8272 H   0  0  0  0  0  0  0  0  0  0  0  0
    8.2712   -6.6002   30.8298 H   0  0  0  0  0  0  0  0  0  0  0  0
    7.5119   -5.4538   28.8237 H   0  0  0  0  0  0  0  0  0  0  0  0
    1.1668   -5.5093   35.4407 H   0  0  0  0  0  0  0  0  0  0  0  0
   -0.7116   -6.8691   36.2809 H   0  0  0  0  0  0  0  0  0  0  0  0
   -2.1826   -8.0982   34.7396 H   0  0  0  0  0  0  0  0  0  0  0  0
    0.5915   -6.3226   30.4929 H   0  0  0  0  0  0  0  0  0  0  0  0
    2.4640    0.8795   32.7230 H   0  0  0  0  0  0  0  0  0  0  0  0
    2.2598    2.8880   31.2548 H   0  0  0  0  0  0  0  0  0  0  0  0
    0.4422    2.9332   29.5412 H   0  0  0  0  0  0  0  0  0  0  0  0
   -0.9903   -0.7423   30.7168 H   0  0  0  0  0  0  0  0  0  0  0  0
  1  2  2  0
  2  3  1  0
  3  4  1  0
  4  5  1  0
  5  6  1  0
  6  7  1  0
  7  8  1  0
  8  9  1  0
  9 10  1  0
 10 11  2  0
 11 12  1  0
 12 13  1  0
 13 14  2  0
 13 15  1  0
 15 16  1  0
 16 17  2  0
 17 18  1  0
 18 19  1  0
 19 20  2  0
 19 21  1  0
 21 22  2  0
 22 23  1  0
 23 24  2  0
 24 25  1  0
 25 26  2  0
  3 27  1  0
 27 28  1  0
 28 29  1  0
 29 30  1  0
 30 31  2  0
 31 32  1  0
 32 33  2  0
 33 34  1  0
 34 35  2  0
 35 36  1  0
 36 37  2  0
 37 38  1  0
 28 39  2  0
 39 40  1  0
 40 41  2  0
 41 42  1  0
 42 43  2  0
 43 44  1  0
 44 45  2  0
 45 46  1  0
 46 47  2  0
 12  8  2  0
 26 16  1  0
 41 27  1  0
 47 42  1  0
 26 21  1  0
 38 30  1  0
 38 34  1  0
  1 48  1  0
  1 49  1  0
  2 50  1  0
  3 51  1  0
  4 52  1  0
  5 53  1  0
  5 54  1  0
  6 55  1  0
  7 56  1  0
  7 57  1  0
 10 58  1  0
 15 59  1  0
 17 60  1  0
 18 61  1  0
 22 62  1  0
 23 63  1  0
 24 64  1  0
 25 65  1  0
 31 66  1  0
 32 67  1  0
 33 68  1  0
 37 69  1  0
 43 70  1  0
 44 71  1  0
 45 72  1  0
 47 73  1  0
M  END
>  <Energy>  (16) 
75.525206946310533

>  <compound_id>  (16) 
2338

>  <target_id>  (16) 
1

>  <reference_id>  (16) 
155

>  <inspiration_ids>  (16) 
[163, 155]

>  <energy_score>  (16) 
-80.37818236569524

>  <distance_score>  (16) 
0.6586266960274133

>  <path>  (16) 
/opt/xchem-fragalysis-2/maxwin/BulkDock/SCRATCH/505736/C2338-P155/C2338-P155.minimised.mol

>  <scratch_subdir>  (16) 
/opt/xchem-fragalysis-2/maxwin/BulkDock/SCRATCH/505736/C2338-P155

>  <fragmenstein_runtime>  (16) 
7.382442474365234

>  <fragmenstein_outcome>  (16) 
acceptable

>  <fragmenstein_mode>  (16) 
expansion

>  <fragmenstein_error>  (16) 


$$$$
C2339-P163
     RDKit          3D

 45 49  0  0  0  0  0  0  0  0999 V2000
    1.0800   -3.4415   28.7592 C   0  0  0  0  0  0  0  0  0  0  0  0
    2.3237   -3.4715   29.2490 C   0  0  0  0  0  0  0  0  0  0  0  0
    2.7622   -2.7303   30.4712 C   0  0  0  0  0  0  0  0  0  0  0  0
    1.7062   -2.5309   31.4662 N   0  0  0  0  0  0  0  0  0  0  0  0
    2.1100   -1.3880   32.3030 C   0  0  0  0  0  0  0  0  0  0  0  0
    1.4759   -0.0944   31.8626 C   0  0  0  0  0  0  0  0  0  0  0  0
    2.2476    1.0747   31.8033 C   0  0  0  0  0  0  0  0  0  0  0  0
    1.7455    2.2156   31.1890 C   0  0  0  0  0  0  0  0  0  0  0  0
    0.4692    2.1634   30.6677 C   0  0  0  0  0  0  0  0  0  0  0  0
   -0.3408    1.0879   30.7740 N   0  0  0  0  0  0  0  0  0  0  0  0
    0.1803   -0.0168   31.3594 C   0  0  0  0  0  0  0  0  0  0  0  0
    1.9004   -1.7917   33.6890 N   0  0  0  0  0  0  0  0  0  0  0  0
    2.1450   -3.2518   33.6212 N   0  0  0  0  0  0  0  0  0  0  0  0
    1.4304   -3.6435   32.3893 C   0  0  0  0  0  0  0  0  0  0  0  0
    1.7790   -5.0888   31.8894 C   0  0  0  0  0  0  0  0  0  0  0  0
    0.7109   -5.7589   30.9646 C   0  0  0  0  0  0  0  0  0  0  0  0
   -0.2462   -6.6033   31.7329 C   0  0  0  0  0  0  0  0  0  0  0  0
   -0.7423   -7.7818   31.4187 N   0  0  0  0  0  0  0  0  0  0  0  0
   -1.2833   -8.3159   32.5709 N   0  0  0  0  0  0  0  0  0  0  0  0
   -1.0871   -7.4577   33.5509 C   0  0  0  0  0  0  0  0  0  0  0  0
   -1.2219   -7.4948   34.9664 C   0  0  0  0  0  0  0  0  0  0  0  0
   -0.9447   -6.3961   35.6948 C   0  0  0  0  0  0  0  0  0  0  0  0
   -0.6490   -5.1245   35.0579 C   0  0  0  0  0  0  0  0  0  0  0  0
   -0.5190   -5.0874   33.7202 C   0  0  0  0  0  0  0  0  0  0  0  0
   -0.6360   -6.2773   33.0082 N   0  0  0  0  0  0  0  0  0  0  0  0
   -0.3758   -3.6080   32.8425 S   0  0  0  0  0  0  0  0  0  0  0  0
    0.8030   -4.0219   27.8955 H   0  0  0  0  0  0  0  0  0  0  0  0
    0.2929   -2.8378   29.2066 H   0  0  0  0  0  0  0  0  0  0  0  0
    3.0813   -4.0528   28.7305 H   0  0  0  0  0  0  0  0  0  0  0  0
    3.1228   -1.7644   30.0872 H   0  0  0  0  0  0  0  0  0  0  0  0
    3.6444   -3.2117   30.9122 H   0  0  0  0  0  0  0  0  0  0  0  0
    3.2009   -1.2500   32.2250 H   0  0  0  0  0  0  0  0  0  0  0  0
    3.2677    1.0868   32.1789 H   0  0  0  0  0  0  0  0  0  0  0  0
    2.3437    3.1146   31.0918 H   0  0  0  0  0  0  0  0  0  0  0  0
    0.0570    3.0171   30.1362 H   0  0  0  0  0  0  0  0  0  0  0  0
   -0.4816   -0.8779   31.3622 H   0  0  0  0  0  0  0  0  0  0  0  0
    2.5781   -1.3135   34.2847 H   0  0  0  0  0  0  0  0  0  0  0  0
    1.6784   -3.7103   34.4047 H   0  0  0  0  0  0  0  0  0  0  0  0
    1.9813   -5.7389   32.7540 H   0  0  0  0  0  0  0  0  0  0  0  0
    2.7407   -5.0934   31.3680 H   0  0  0  0  0  0  0  0  0  0  0  0
    1.2235   -6.3974   30.2382 H   0  0  0  0  0  0  0  0  0  0  0  0
    0.1296   -5.0344   30.3952 H   0  0  0  0  0  0  0  0  0  0  0  0
   -1.4997   -8.4169   35.4545 H   0  0  0  0  0  0  0  0  0  0  0  0
   -1.0044   -6.4105   36.7792 H   0  0  0  0  0  0  0  0  0  0  0  0
   -0.6390   -4.2291   35.6726 H   0  0  0  0  0  0  0  0  0  0  0  0
  1  2  2  0
  2  3  1  0
  3  4  1  0
  4  5  1  0
  5  6  1  0
  6  7  2  0
  7  8  1  0
  8  9  2  0
  9 10  1  0
 10 11  2  0
  5 12  1  0
 12 13  1  0
 13 14  1  0
 14 15  1  0
 15 16  1  0
 16 17  1  0
 17 18  2  0
 18 19  1  0
 19 20  2  0
 20 21  1  0
 21 22  2  0
 22 23  1  0
 23 24  2  0
 24 25  1  0
 24 26  1  0
 14  4  1  0
 25 17  1  0
 11  6  1  0
 26 14  1  0
 25 20  1  0
  1 27  1  0
  1 28  1  0
  2 29  1  0
  3 30  1  0
  3 31  1  0
  5 32  1  0
  7 33  1  0
  8 34  1  0
  9 35  1  0
 11 36  1  0
 12 37  1  0
 13 38  1  0
 15 39  1  0
 15 40  1  0
 16 41  1  0
 16 42  1  0
 21 43  1  0
 22 44  1  0
 23 45  1  0
M  END
>  <Energy>  (17) 
46.356648493026498

>  <compound_id>  (17) 
2339

>  <target_id>  (17) 
1

>  <reference_id>  (17) 
163

>  <inspiration_ids>  (17) 
[163, 156]

>  <energy_score>  (17) 
-44.497822716791916

>  <distance_score>  (17) 
1.0463155183759008

>  <path>  (17) 
/opt/xchem-fragalysis-2/maxwin/BulkDock/SCRATCH/505736/C2339-P163/C2339-P163.minimised.mol

>  <scratch_subdir>  (17) 
/opt/xchem-fragalysis-2/maxwin/BulkDock/SCRATCH/505736/C2339-P163

>  <fragmenstein_runtime>  (17) 
2.09525728225708

>  <fragmenstein_outcome>  (17) 
too moved

>  <fragmenstein_mode>  (17) 
expansion

>  <fragmenstein_error>  (17) 


$$$$
C2339-P156
     RDKit          3D

 45 49  0  0  0  0  0  0  0  0999 V2000
    0.6667   -3.3627   28.8874 C   0  0  0  0  0  0  0  0  0  0  0  0
    1.9627   -3.4953   29.1980 C   0  0  0  0  0  0  0  0  0  0  0  0
    2.5985   -2.8223   30.3731 C   0  0  0  0  0  0  0  0  0  0  0  0
    1.6706   -2.6160   31.4820 N   0  0  0  0  0  0  0  0  0  0  0  0
    2.1572   -1.4914   32.2882 C   0  0  0  0  0  0  0  0  0  0  0  0
    1.5632   -0.1771   31.8513 C   0  0  0  0  0  0  0  0  0  0  0  0
    2.3674    0.9687   31.7829 C   0  0  0  0  0  0  0  0  0  0  0  0
    1.9010    2.1143   31.1481 C   0  0  0  0  0  0  0  0  0  0  0  0
    0.6303    2.0872   30.6116 C   0  0  0  0  0  0  0  0  0  0  0  0
   -0.2089    1.0350   30.7285 N   0  0  0  0  0  0  0  0  0  0  0  0
    0.2718   -0.0694   31.3431 C   0  0  0  0  0  0  0  0  0  0  0  0
    1.9568   -1.8756   33.6796 N   0  0  0  0  0  0  0  0  0  0  0  0
    2.1549   -3.3444   33.6211 N   0  0  0  0  0  0  0  0  0  0  0  0
    1.4150   -3.7302   32.4017 C   0  0  0  0  0  0  0  0  0  0  0  0
    1.7558   -5.1744   31.8940 C   0  0  0  0  0  0  0  0  0  0  0  0
    0.6747   -5.8537   30.9933 C   0  0  0  0  0  0  0  0  0  0  0  0
   -0.2716   -6.6934   31.7774 C   0  0  0  0  0  0  0  0  0  0  0  0
   -0.7770   -7.8700   31.4698 N   0  0  0  0  0  0  0  0  0  0  0  0
   -1.3175   -8.3972   32.6255 N   0  0  0  0  0  0  0  0  0  0  0  0
   -1.1173   -7.5336   33.5992 C   0  0  0  0  0  0  0  0  0  0  0  0
   -1.2580   -7.5650   35.0129 C   0  0  0  0  0  0  0  0  0  0  0  0
   -0.9782   -6.4640   35.7367 C   0  0  0  0  0  0  0  0  0  0  0  0
   -0.6729   -5.1968   35.0963 C   0  0  0  0  0  0  0  0  0  0  0  0
   -0.5300   -5.1659   33.7599 C   0  0  0  0  0  0  0  0  0  0  0  0
   -0.6530   -6.3587   33.0524 N   0  0  0  0  0  0  0  0  0  0  0  0
   -0.3801   -3.6860   32.8839 S   0  0  0  0  0  0  0  0  0  0  0  0
    0.2019   -3.8949   28.0723 H   0  0  0  0  0  0  0  0  0  0  0  0
   -0.0004   -2.7169   29.4537 H   0  0  0  0  0  0  0  0  0  0  0  0
    2.5990   -4.1161   28.5744 H   0  0  0  0  0  0  0  0  0  0  0  0
    2.9629   -1.8625   29.9787 H   0  0  0  0  0  0  0  0  0  0  0  0
    3.5006   -3.3588   30.6901 H   0  0  0  0  0  0  0  0  0  0  0  0
    3.2503   -1.4116   32.1709 H   0  0  0  0  0  0  0  0  0  0  0  0
    3.3856    0.9558   32.1636 H   0  0  0  0  0  0  0  0  0  0  0  0
    2.5238    2.9955   31.0436 H   0  0  0  0  0  0  0  0  0  0  0  0
    0.2426    2.9425   30.0631 H   0  0  0  0  0  0  0  0  0  0  0  0
   -0.4171   -0.9090   31.3611 H   0  0  0  0  0  0  0  0  0  0  0  0
    2.6597   -1.4146   34.2595 H   0  0  0  0  0  0  0  0  0  0  0  0
    1.6824   -3.7798   34.4144 H   0  0  0  0  0  0  0  0  0  0  0  0
    1.9785   -5.8231   32.7547 H   0  0  0  0  0  0  0  0  0  0  0  0
    2.7051   -5.1726   31.3498 H   0  0  0  0  0  0  0  0  0  0  0  0
    1.1757   -6.4937   30.2607 H   0  0  0  0  0  0  0  0  0  0  0  0
    0.0784   -5.1393   30.4310 H   0  0  0  0  0  0  0  0  0  0  0  0
   -1.5415   -8.4855   35.5015 H   0  0  0  0  0  0  0  0  0  0  0  0
   -1.0394   -6.4732   36.8212 H   0  0  0  0  0  0  0  0  0  0  0  0
   -0.6629   -4.2988   35.7078 H   0  0  0  0  0  0  0  0  0  0  0  0
  1  2  2  0
  2  3  1  0
  3  4  1  0
  4  5  1  0
  5  6  1  0
  6  7  2  0
  7  8  1  0
  8  9  2  0
  9 10  1  0
 10 11  2  0
  5 12  1  0
 12 13  1  0
 13 14  1  0
 14 15  1  0
 15 16  1  0
 16 17  1  0
 17 18  2  0
 18 19  1  0
 19 20  2  0
 20 21  1  0
 21 22  2  0
 22 23  1  0
 23 24  2  0
 24 25  1  0
 24 26  1  0
 14  4  1  0
 25 17  1  0
 11  6  1  0
 26 14  1  0
 25 20  1  0
  1 27  1  0
  1 28  1  0
  2 29  1  0
  3 30  1  0
  3 31  1  0
  5 32  1  0
  7 33  1  0
  8 34  1  0
  9 35  1  0
 11 36  1  0
 12 37  1  0
 13 38  1  0
 15 39  1  0
 15 40  1  0
 16 41  1  0
 16 42  1  0
 21 43  1  0
 22 44  1  0
 23 45  1  0
M  END
>  <Energy>  (18) 
46.002060512864198

>  <compound_id>  (18) 
2339

>  <target_id>  (18) 
1

>  <reference_id>  (18) 
156

>  <inspiration_ids>  (18) 
[163, 156]

>  <energy_score>  (18) 
-44.85241069695499

>  <distance_score>  (18) 
1.075527181333492

>  <path>  (18) 
/opt/xchem-fragalysis-2/maxwin/BulkDock/SCRATCH/505736/C2339-P156/C2339-P156.minimised.mol

>  <scratch_subdir>  (18) 
/opt/xchem-fragalysis-2/maxwin/BulkDock/SCRATCH/505736/C2339-P156

>  <fragmenstein_runtime>  (18) 
1.7589945793151855

>  <fragmenstein_outcome>  (18) 
too moved

>  <fragmenstein_mode>  (18) 
expansion

>  <fragmenstein_error>  (18) 


$$$$
C2339-P163
     RDKit          3D

 45 49  0  0  0  0  0  0  0  0999 V2000
    1.0126   -3.4202   28.7634 C   0  0  0  0  0  0  0  0  0  0  0  0
    2.2687   -3.4627   29.2202 C   0  0  0  0  0  0  0  0  0  0  0  0
    2.7389   -2.7366   30.4394 C   0  0  0  0  0  0  0  0  0  0  0  0
    1.7009   -2.5406   31.4526 N   0  0  0  0  0  0  0  0  0  0  0  0
    2.1173   -1.4053   32.2918 C   0  0  0  0  0  0  0  0  0  0  0  0
    1.4858   -0.1062   31.8634 C   0  0  0  0  0  0  0  0  0  0  0  0
    2.2632    1.0588   31.7998 C   0  0  0  0  0  0  0  0  0  0  0  0
    1.7600    2.2054   31.1971 C   0  0  0  0  0  0  0  0  0  0  0  0
    0.4771    2.1630   30.6914 C   0  0  0  0  0  0  0  0  0  0  0  0
   -0.3375    1.0915   30.8018 N   0  0  0  0  0  0  0  0  0  0  0  0
    0.1847   -0.0189   31.3756 C   0  0  0  0  0  0  0  0  0  0  0  0
    1.9131   -1.8162   33.6764 N   0  0  0  0  0  0  0  0  0  0  0  0
    2.1508   -3.2771   33.5986 N   0  0  0  0  0  0  0  0  0  0  0  0
    1.4288   -3.6598   32.3677 C   0  0  0  0  0  0  0  0  0  0  0  0
    1.7737   -5.1043   31.8579 C   0  0  0  0  0  0  0  0  0  0  0  0
    0.6996   -5.7804   30.9453 C   0  0  0  0  0  0  0  0  0  0  0  0
   -0.2539   -6.6193   31.7240 C   0  0  0  0  0  0  0  0  0  0  0  0
   -0.7570   -7.7962   31.4150 N   0  0  0  0  0  0  0  0  0  0  0  0
   -1.2957   -8.3249   32.5705 N   0  0  0  0  0  0  0  0  0  0  0  0
   -1.0914   -7.4656   33.5477 C   0  0  0  0  0  0  0  0  0  0  0  0
   -1.2239   -7.4983   34.9636 C   0  0  0  0  0  0  0  0  0  0  0  0
   -0.9423   -6.3985   35.6885 C   0  0  0  0  0  0  0  0  0  0  0  0
   -0.6442   -5.1299   35.0470 C   0  0  0  0  0  0  0  0  0  0  0  0
   -0.5156   -5.0975   33.7091 C   0  0  0  0  0  0  0  0  0  0  0  0
   -0.6364   -6.2888   33.0005 N   0  0  0  0  0  0  0  0  0  0  0  0
   -0.3747   -3.6211   32.8272 S   0  0  0  0  0  0  0  0  0  0  0  0
    0.2411   -2.8169   29.2374 H   0  0  0  0  0  0  0  0  0  0  0  0
    0.7062   -3.9882   27.9013 H   0  0  0  0  0  0  0  0  0  0  0  0
    3.0096   -4.0420   28.6763 H   0  0  0  0  0  0  0  0  0  0  0  0
    3.1001   -1.7700   30.0582 H   0  0  0  0  0  0  0  0  0  0  0  0
    3.6250   -3.2289   30.8600 H   0  0  0  0  0  0  0  0  0  0  0  0
    3.2085   -1.2736   32.2065 H   0  0  0  0  0  0  0  0  0  0  0  0
    3.2879    1.0634   32.1630 H   0  0  0  0  0  0  0  0  0  0  0  0
    2.3622    3.1014   31.0970 H   0  0  0  0  0  0  0  0  0  0  0  0
    0.0637    3.0221   30.1697 H   0  0  0  0  0  0  0  0  0  0  0  0
   -0.4818   -0.8764   31.3826 H   0  0  0  0  0  0  0  0  0  0  0  0
    2.5964   -1.3446   34.2710 H   0  0  0  0  0  0  0  0  0  0  0  0
    1.6869   -3.7383   34.3821 H   0  0  0  0  0  0  0  0  0  0  0  0
    2.7295   -5.1051   31.3258 H   0  0  0  0  0  0  0  0  0  0  0  0
    1.9871   -5.7550   32.7195 H   0  0  0  0  0  0  0  0  0  0  0  0
    0.1151   -5.0595   30.3751 H   0  0  0  0  0  0  0  0  0  0  0  0
    1.2071   -6.4233   30.2193 H   0  0  0  0  0  0  0  0  0  0  0  0
   -1.5043   -8.4180   35.4548 H   0  0  0  0  0  0  0  0  0  0  0  0
   -1.0011   -6.4095   36.7730 H   0  0  0  0  0  0  0  0  0  0  0  0
   -0.6323   -4.2323   35.6586 H   0  0  0  0  0  0  0  0  0  0  0  0
  1  2  2  0
  2  3  1  0
  3  4  1  0
  4  5  1  0
  5  6  1  0
  6  7  2  0
  7  8  1  0
  8  9  2  0
  9 10  1  0
 10 11  2  0
  5 12  1  0
 12 13  1  0
 13 14  1  0
 14 15  1  0
 15 16  1  0
 16 17  1  0
 17 18  2  0
 18 19  1  0
 19 20  2  0
 20 21  1  0
 21 22  2  0
 22 23  1  0
 23 24  2  0
 24 25  1  0
 24 26  1  0
 14  4  1  0
 25 17  1  0
 11  6  1  0
 26 14  1  0
 25 20  1  0
  1 27  1  0
  1 28  1  0
  2 29  1  0
  3 30  1  0
  3 31  1  0
  5 32  1  0
  7 33  1  0
  8 34  1  0
  9 35  1  0
 11 36  1  0
 12 37  1  0
 13 38  1  0
 15 39  1  0
 15 40  1  0
 16 41  1  0
 16 42  1  0
 21 43  1  0
 22 44  1  0
 23 45  1  0
M  END
>  <Energy>  (19) 
46.134119659825032

>  <compound_id>  (19) 
2339

>  <target_id>  (19) 
1

>  <reference_id>  (19) 
163

>  <inspiration_ids>  (19) 
[163, 157]

>  <energy_score>  (19) 
-44.720351549991676

>  <distance_score>  (19) 
1.012076911456024

>  <path>  (19) 
/opt/xchem-fragalysis-2/maxwin/BulkDock/SCRATCH/505736/C2339-P163/C2339-P163.minimised.mol

>  <scratch_subdir>  (19) 
/opt/xchem-fragalysis-2/maxwin/BulkDock/SCRATCH/505736/C2339-P163

>  <fragmenstein_runtime>  (19) 
1.3778479099273682

>  <fragmenstein_outcome>  (19) 
too moved

>  <fragmenstein_mode>  (19) 
expansion

>  <fragmenstein_error>  (19) 


$$$$
C2339-P157
     RDKit          3D

 45 49  0  0  0  0  0  0  0  0999 V2000
    0.7803   -3.3554   28.8289 C   0  0  0  0  0  0  0  0  0  0  0  0
    2.0619   -3.4580   29.2010 C   0  0  0  0  0  0  0  0  0  0  0  0
    2.6306   -2.7825   30.4081 C   0  0  0  0  0  0  0  0  0  0  0  0
    1.6561   -2.5883   31.4800 N   0  0  0  0  0  0  0  0  0  0  0  0
    2.1195   -1.4740   32.3165 C   0  0  0  0  0  0  0  0  0  0  0  0
    1.5220   -0.1549   31.9018 C   0  0  0  0  0  0  0  0  0  0  0  0
    2.3181    0.9984   31.8707 C   0  0  0  0  0  0  0  0  0  0  0  0
    1.8380    2.1663   31.2892 C   0  0  0  0  0  0  0  0  0  0  0  0
    0.5608    2.1541   30.7684 C   0  0  0  0  0  0  0  0  0  0  0  0
   -0.2654    1.0879   30.8396 N   0  0  0  0  0  0  0  0  0  0  0  0
    0.2296   -0.0394   31.3994 C   0  0  0  0  0  0  0  0  0  0  0  0
    1.9022   -1.8836   33.6986 N   0  0  0  0  0  0  0  0  0  0  0  0
    2.1051   -3.3476   33.6182 N   0  0  0  0  0  0  0  0  0  0  0  0
    1.3826   -3.7153   32.3822 C   0  0  0  0  0  0  0  0  0  0  0  0
    1.7342   -5.1528   31.8643 C   0  0  0  0  0  0  0  0  0  0  0  0
    0.6625   -5.8350   30.9577 C   0  0  0  0  0  0  0  0  0  0  0  0
   -0.2770   -6.6832   31.7414 C   0  0  0  0  0  0  0  0  0  0  0  0
   -0.7594   -7.8691   31.4362 N   0  0  0  0  0  0  0  0  0  0  0  0
   -1.2837   -8.4054   32.5949 N   0  0  0  0  0  0  0  0  0  0  0  0
   -1.1042   -7.5365   33.5686 C   0  0  0  0  0  0  0  0  0  0  0  0
   -1.2451   -7.5623   34.9844 C   0  0  0  0  0  0  0  0  0  0  0  0
   -1.0136   -6.4451   35.7000 C   0  0  0  0  0  0  0  0  0  0  0  0
   -0.7385   -5.1760   35.0511 C   0  0  0  0  0  0  0  0  0  0  0  0
   -0.5773   -5.1528   33.7165 C   0  0  0  0  0  0  0  0  0  0  0  0
   -0.6682   -6.3529   33.0156 N   0  0  0  0  0  0  0  0  0  0  0  0
   -0.4232   -3.6760   32.8345 S   0  0  0  0  0  0  0  0  0  0  0  0
    0.0668   -2.7389   29.3711 H   0  0  0  0  0  0  0  0  0  0  0  0
    0.3830   -3.8803   27.9748 H   0  0  0  0  0  0  0  0  0  0  0  0
    2.7434   -4.0484   28.5955 H   0  0  0  0  0  0  0  0  0  0  0  0
    2.9987   -1.8160   30.0333 H   0  0  0  0  0  0  0  0  0  0  0  0
    3.5254   -3.3086   30.7622 H   0  0  0  0  0  0  0  0  0  0  0  0
    3.2136   -1.3806   32.2202 H   0  0  0  0  0  0  0  0  0  0  0  0
    3.3377    0.9791   32.2473 H   0  0  0  0  0  0  0  0  0  0  0  0
    2.4521    3.0571   31.2204 H   0  0  0  0  0  0  0  0  0  0  0  0
    0.1582    3.0335   30.2716 H   0  0  0  0  0  0  0  0  0  0  0  0
   -0.4511   -0.8857   31.3840 H   0  0  0  0  0  0  0  0  0  0  0  0
    2.5946   -1.4294   34.2960 H   0  0  0  0  0  0  0  0  0  0  0  0
    1.6249   -3.8002   34.3972 H   0  0  0  0  0  0  0  0  0  0  0  0
    2.6853   -5.1422   31.3244 H   0  0  0  0  0  0  0  0  0  0  0  0
    1.9584   -5.8053   32.7219 H   0  0  0  0  0  0  0  0  0  0  0  0
    0.0684   -5.1211   30.3900 H   0  0  0  0  0  0  0  0  0  0  0  0
    1.1727   -6.4712   30.2283 H   0  0  0  0  0  0  0  0  0  0  0  0
   -1.4798   -8.4897   35.4907 H   0  0  0  0  0  0  0  0  0  0  0  0
   -1.0758   -6.4569   36.7841 H   0  0  0  0  0  0  0  0  0  0  0  0
   -0.7494   -4.2738   35.6558 H   0  0  0  0  0  0  0  0  0  0  0  0
  1  2  2  0
  2  3  1  0
  3  4  1  0
  4  5  1  0
  5  6  1  0
  6  7  2  0
  7  8  1  0
  8  9  2  0
  9 10  1  0
 10 11  2  0
  5 12  1  0
 12 13  1  0
 13 14  1  0
 14 15  1  0
 15 16  1  0
 16 17  1  0
 17 18  2  0
 18 19  1  0
 19 20  2  0
 20 21  1  0
 21 22  2  0
 22 23  1  0
 23 24  2  0
 24 25  1  0
 24 26  1  0
 14  4  1  0
 25 17  1  0
 11  6  1  0
 26 14  1  0
 25 20  1  0
  1 27  1  0
  1 28  1  0
  2 29  1  0
  3 30  1  0
  3 31  1  0
  5 32  1  0
  7 33  1  0
  8 34  1  0
  9 35  1  0
 11 36  1  0
 12 37  1  0
 13 38  1  0
 15 39  1  0
 15 40  1  0
 16 41  1  0
 16 42  1  0
 21 43  1  0
 22 44  1  0
 23 45  1  0
M  END
>  <Energy>  (20) 
44.503376443280025

>  <compound_id>  (20) 
2339

>  <target_id>  (20) 
1

>  <reference_id>  (20) 
157

>  <inspiration_ids>  (20) 
[163, 157]

>  <energy_score>  (20) 
-46.35109476654114

>  <distance_score>  (20) 
1.0275686235202823

>  <path>  (20) 
/opt/xchem-fragalysis-2/maxwin/BulkDock/SCRATCH/505736/C2339-P157/C2339-P157.minimised.mol

>  <scratch_subdir>  (20) 
/opt/xchem-fragalysis-2/maxwin/BulkDock/SCRATCH/505736/C2339-P157

>  <fragmenstein_runtime>  (20) 
1.2711563110351562

>  <fragmenstein_outcome>  (20) 
too moved

>  <fragmenstein_mode>  (20) 
expansion

>  <fragmenstein_error>  (20) 


$$$$
C2340-P163
     RDKit          3D

 54 59  0  0  0  0  0  0  0  0999 V2000
    2.7731   -4.2695   28.7862 C   0  0  0  0  0  0  0  0  0  0  0  0
    2.9437   -3.4120   29.8018 C   0  0  0  0  0  0  0  0  0  0  0  0
    2.0701   -2.2152   30.0262 C   0  0  0  0  0  0  0  0  0  0  0  0
    1.4242   -2.1395   31.3278 N   0  0  0  0  0  0  0  0  0  0  0  0
    1.0140   -3.1179   32.1968 C   0  0  0  0  0  0  0  0  0  0  0  0
    0.7891   -4.4994   31.8819 C   0  0  0  0  0  0  0  0  0  0  0  0
    0.2922   -4.8489   30.6657 C   0  0  0  0  0  0  0  0  0  0  0  0
   -0.3390   -6.1421   30.4123 C   0  0  0  0  0  0  0  0  0  0  0  0
   -0.5965   -6.9398   31.4481 C   0  0  0  0  0  0  0  0  0  0  0  0
   -1.4732   -7.9901   31.6353 N   0  0  0  0  0  0  0  0  0  0  0  0
   -1.6220   -8.1942   33.0368 N   0  0  0  0  0  0  0  0  0  0  0  0
   -0.7668   -7.3594   33.5929 C   0  0  0  0  0  0  0  0  0  0  0  0
   -0.5674   -7.0780   35.0270 C   0  0  0  0  0  0  0  0  0  0  0  0
    0.2432   -6.0183   35.2649 C   0  0  0  0  0  0  0  0  0  0  0  0
    0.4606   -5.3637   36.4326 O   0  0  0  0  0  0  0  0  0  0  0  0
   -0.3372   -5.6782   37.5413 C   0  0  0  0  0  0  0  0  0  0  0  0
    0.1501   -6.9118   38.0649 N   0  0  0  0  0  0  0  0  0  0  0  0
    0.1649   -7.2097   39.3675 C   0  0  0  0  0  0  0  0  0  0  0  0
   -0.4562   -6.6022   40.4713 C   0  0  0  0  0  0  0  0  0  0  0  0
   -0.2299   -7.2822   41.5995 N   0  0  0  0  0  0  0  0  0  0  0  0
    0.5187   -8.3265   41.1930 N   0  0  0  0  0  0  0  0  0  0  0  0
    0.8285   -8.2907   39.8691 C   0  0  0  0  0  0  0  0  0  0  0  0
    0.9288   -5.2676   34.2357 C   0  0  0  0  0  0  0  0  0  0  0  0
    0.6311   -5.4950   32.9535 C   0  0  0  0  0  0  0  0  0  0  0  0
   -0.0837   -6.6255   32.6624 N   0  0  0  0  0  0  0  0  0  0  0  0
    0.7622   -2.5273   33.3567 N   0  0  0  0  0  0  0  0  0  0  0  0
    0.7893   -1.1797   33.1934 N   0  0  0  0  0  0  0  0  0  0  0  0
    1.0495   -0.9514   31.9281 C   0  0  0  0  0  0  0  0  0  0  0  0
    0.9017    0.3161   31.2532 C   0  0  0  0  0  0  0  0  0  0  0  0
    1.6657    1.4244   31.6073 C   0  0  0  0  0  0  0  0  0  0  0  0
    1.4958    2.6161   30.9093 C   0  0  0  0  0  0  0  0  0  0  0  0
    0.5608    2.6546   29.8872 C   0  0  0  0  0  0  0  0  0  0  0  0
   -0.2085    1.6016   29.5375 N   0  0  0  0  0  0  0  0  0  0  0  0
   -0.0351    0.4628   30.2361 C   0  0  0  0  0  0  0  0  0  0  0  0
    1.9807   -4.1454   28.0554 H   0  0  0  0  0  0  0  0  0  0  0  0
    3.4398   -5.1179   28.6620 H   0  0  0  0  0  0  0  0  0  0  0  0
    3.7632   -3.5676   30.5011 H   0  0  0  0  0  0  0  0  0  0  0  0
    1.2742   -2.1453   29.2756 H   0  0  0  0  0  0  0  0  0  0  0  0
    2.7035   -1.3258   29.9255 H   0  0  0  0  0  0  0  0  0  0  0  0
    0.1484   -4.1338   29.8622 H   0  0  0  0  0  0  0  0  0  0  0  0
   -0.8018   -6.3216   29.4645 H   0  0  0  0  0  0  0  0  0  0  0  0
   -2.3710   -7.8281   31.1893 H   0  0  0  0  0  0  0  0  0  0  0  0
   -1.1293   -7.6416   35.7532 H   0  0  0  0  0  0  0  0  0  0  0  0
   -1.3979   -5.7178   37.2786 H   0  0  0  0  0  0  0  0  0  0  0  0
   -0.2139   -4.8595   38.2591 H   0  0  0  0  0  0  0  0  0  0  0  0
    0.8381   -7.3512   37.4631 H   0  0  0  0  0  0  0  0  0  0  0  0
   -1.0776   -5.7175   40.5102 H   0  0  0  0  0  0  0  0  0  0  0  0
    0.7794   -9.0327   41.8732 H   0  0  0  0  0  0  0  0  0  0  0  0
    1.4282   -9.0649   39.4162 H   0  0  0  0  0  0  0  0  0  0  0  0
    1.4805   -4.3916   34.5636 H   0  0  0  0  0  0  0  0  0  0  0  0
    2.3863    1.3663   32.4192 H   0  0  0  0  0  0  0  0  0  0  0  0
    2.0726    3.5002   31.1590 H   0  0  0  0  0  0  0  0  0  0  0  0
    0.3857    3.5654   29.3185 H   0  0  0  0  0  0  0  0  0  0  0  0
   -0.6916   -0.3503   29.9365 H   0  0  0  0  0  0  0  0  0  0  0  0
  1  2  2  0
  2  3  1  0
  3  4  1  0
  4  5  1  0
  5  6  1  0
  6  7  2  0
  7  8  1  0
  8  9  2  0
  9 10  1  0
 10 11  1  0
 11 12  2  0
 12 13  1  0
 13 14  2  0
 14 15  1  0
 15 16  1  0
 16 17  1  0
 17 18  1  0
 18 19  1  0
 19 20  2  0
 20 21  1  0
 21 22  1  0
 14 23  1  0
 23 24  2  0
 24 25  1  0
  5 26  2  0
 26 27  1  0
 27 28  2  0
 28 29  1  0
 29 30  2  0
 30 31  1  0
 31 32  2  0
 32 33  1  0
 33 34  2  0
 28  4  1  0
 34 29  1  0
 24  6  1  0
 25  9  1  0
 25 12  1  0
 22 18  2  0
  1 35  1  0
  1 36  1  0
  2 37  1  0
  3 38  1  0
  3 39  1  0
  7 40  1  0
  8 41  1  0
 10 42  1  0
 13 43  1  0
 16 44  1  0
 16 45  1  0
 17 46  1  0
 19 47  1  0
 21 48  1  0
 22 49  1  0
 23 50  1  0
 30 51  1  0
 31 52  1  0
 32 53  1  0
 34 54  1  0
M  END
>  <Energy>  (21) 
117.69150464149448

>  <compound_id>  (21) 
2340

>  <target_id>  (21) 
1

>  <reference_id>  (21) 
163

>  <inspiration_ids>  (21) 
[163, 158]

>  <energy_score>  (21) 
-29.434965730289093

>  <distance_score>  (21) 
1.1407136543811394

>  <path>  (21) 
/opt/xchem-fragalysis-2/maxwin/BulkDock/SCRATCH/505736/C2340-P163/C2340-P163.minimised.mol

>  <scratch_subdir>  (21) 
/opt/xchem-fragalysis-2/maxwin/BulkDock/SCRATCH/505736/C2340-P163

>  <fragmenstein_runtime>  (21) 
2.8796262741088867

>  <fragmenstein_outcome>  (21) 
too moved

>  <fragmenstein_mode>  (21) 
expansion

>  <fragmenstein_error>  (21) 


$$$$
C2340-P158
     RDKit          3D

 54 59  0  0  0  0  0  0  0  0999 V2000
    2.7432   -4.2679   28.7167 C   0  0  0  0  0  0  0  0  0  0  0  0
    2.9422   -3.5240   29.8138 C   0  0  0  0  0  0  0  0  0  0  0  0
    2.1316   -2.3065   30.1284 C   0  0  0  0  0  0  0  0  0  0  0  0
    1.4860   -2.2744   31.4337 N   0  0  0  0  0  0  0  0  0  0  0  0
    1.0383   -3.2689   32.2649 C   0  0  0  0  0  0  0  0  0  0  0  0
    0.8017   -4.6393   31.9128 C   0  0  0  0  0  0  0  0  0  0  0  0
    0.3266   -4.9544   30.6781 C   0  0  0  0  0  0  0  0  0  0  0  0
   -0.3369   -6.2253   30.3844 C   0  0  0  0  0  0  0  0  0  0  0  0
   -0.6698   -7.0118   31.4081 C   0  0  0  0  0  0  0  0  0  0  0  0
   -1.6029   -8.0217   31.5616 N   0  0  0  0  0  0  0  0  0  0  0  0
   -1.7316   -8.2957   32.9573 N   0  0  0  0  0  0  0  0  0  0  0  0
   -0.8551   -7.5013   33.5377 C   0  0  0  0  0  0  0  0  0  0  0  0
   -0.6137   -7.3026   34.9740 C   0  0  0  0  0  0  0  0  0  0  0  0
    0.2536   -6.2975   35.2496 C   0  0  0  0  0  0  0  0  0  0  0  0
    0.5215   -5.7401   36.4590 O   0  0  0  0  0  0  0  0  0  0  0  0
   -0.5085   -5.8148   37.4143 C   0  0  0  0  0  0  0  0  0  0  0  0
   -0.3437   -7.0481   38.1207 N   0  0  0  0  0  0  0  0  0  0  0  0
    0.0476   -7.0854   39.4014 C   0  0  0  0  0  0  0  0  0  0  0  0
   -0.2823   -6.2597   40.4870 C   0  0  0  0  0  0  0  0  0  0  0  0
    0.2883   -6.6857   41.6185 N   0  0  0  0  0  0  0  0  0  0  0  0
    0.9662   -7.7827   41.2365 N   0  0  0  0  0  0  0  0  0  0  0  0
    0.8553   -8.0616   39.9111 C   0  0  0  0  0  0  0  0  0  0  0  0
    0.9303   -5.4989   34.2464 C   0  0  0  0  0  0  0  0  0  0  0  0
    0.6026   -5.6554   32.9598 C   0  0  0  0  0  0  0  0  0  0  0  0
   -0.1669   -6.7399   32.6346 N   0  0  0  0  0  0  0  0  0  0  0  0
    0.7560   -2.7060   33.4321 N   0  0  0  0  0  0  0  0  0  0  0  0
    0.8116   -1.3535   33.3099 N   0  0  0  0  0  0  0  0  0  0  0  0
    1.1324   -1.0947   32.0663 C   0  0  0  0  0  0  0  0  0  0  0  0
    1.0913    0.1946   31.4218 C   0  0  0  0  0  0  0  0  0  0  0  0
    2.0124    1.1907   31.7325 C   0  0  0  0  0  0  0  0  0  0  0  0
    2.0204    2.3608   30.9832 C   0  0  0  0  0  0  0  0  0  0  0  0
    1.1007    2.4871   29.9570 C   0  0  0  0  0  0  0  0  0  0  0  0
    0.1595    1.5597   29.6706 N   0  0  0  0  0  0  0  0  0  0  0  0
    0.1650    0.4392   30.4154 C   0  0  0  0  0  0  0  0  0  0  0  0
    1.9739   -4.0244   27.9889 H   0  0  0  0  0  0  0  0  0  0  0  0
    3.3677   -5.1324   28.5138 H   0  0  0  0  0  0  0  0  0  0  0  0
    3.7410   -3.7865   30.5044 H   0  0  0  0  0  0  0  0  0  0  0  0
    1.3398   -2.1462   29.3869 H   0  0  0  0  0  0  0  0  0  0  0  0
    2.8129   -1.4485   30.0836 H   0  0  0  0  0  0  0  0  0  0  0  0
    0.2113   -4.2183   29.8887 H   0  0  0  0  0  0  0  0  0  0  0  0
   -0.7830   -6.3764   29.4194 H   0  0  0  0  0  0  0  0  0  0  0  0
   -2.5087   -7.7354   31.1936 H   0  0  0  0  0  0  0  0  0  0  0  0
   -1.1766   -7.9016   35.6738 H   0  0  0  0  0  0  0  0  0  0  0  0
   -1.5016   -5.7386   36.9572 H   0  0  0  0  0  0  0  0  0  0  0  0
   -0.4097   -4.9412   38.0687 H   0  0  0  0  0  0  0  0  0  0  0  0
    0.0196   -7.7854   37.5203 H   0  0  0  0  0  0  0  0  0  0  0  0
   -0.9227   -5.3883   40.5152 H   0  0  0  0  0  0  0  0  0  0  0  0
    1.4830   -8.2938   41.9430 H   0  0  0  0  0  0  0  0  0  0  0  0
    1.3390   -8.9165   39.4663 H   0  0  0  0  0  0  0  0  0  0  0  0
    1.5155   -4.6565   34.6037 H   0  0  0  0  0  0  0  0  0  0  0  0
    2.7372    1.0484   32.5303 H   0  0  0  0  0  0  0  0  0  0  0  0
    2.7383    3.1495   31.1815 H   0  0  0  0  0  0  0  0  0  0  0  0
    1.0890    3.3731   29.3252 H   0  0  0  0  0  0  0  0  0  0  0  0
   -0.5974   -0.2876   30.1471 H   0  0  0  0  0  0  0  0  0  0  0  0
  1  2  2  0
  2  3  1  0
  3  4  1  0
  4  5  1  0
  5  6  1  0
  6  7  2  0
  7  8  1  0
  8  9  2  0
  9 10  1  0
 10 11  1  0
 11 12  2  0
 12 13  1  0
 13 14  2  0
 14 15  1  0
 15 16  1  0
 16 17  1  0
 17 18  1  0
 18 19  1  0
 19 20  2  0
 20 21  1  0
 21 22  1  0
 14 23  1  0
 23 24  2  0
 24 25  1  0
  5 26  2  0
 26 27  1  0
 27 28  2  0
 28 29  1  0
 29 30  2  0
 30 31  1  0
 31 32  2  0
 32 33  1  0
 33 34  2  0
 28  4  1  0
 34 29  1  0
 24  6  1  0
 25  9  1  0
 25 12  1  0
 22 18  2  0
  1 35  1  0
  1 36  1  0
  2 37  1  0
  3 38  1  0
  3 39  1  0
  7 40  1  0
  8 41  1  0
 10 42  1  0
 13 43  1  0
 16 44  1  0
 16 45  1  0
 17 46  1  0
 19 47  1  0
 21 48  1  0
 22 49  1  0
 23 50  1  0
 30 51  1  0
 31 52  1  0
 32 53  1  0
 34 54  1  0
M  END
>  <Energy>  (22) 
121.08126896450578

>  <compound_id>  (22) 
2340

>  <target_id>  (22) 
1

>  <reference_id>  (22) 
158

>  <inspiration_ids>  (22) 
[163, 158]

>  <energy_score>  (22) 
-26.045201407279166

>  <distance_score>  (22) 
1.1132439290919294

>  <path>  (22) 
/opt/xchem-fragalysis-2/maxwin/BulkDock/SCRATCH/505736/C2340-P158/C2340-P158.minimised.mol

>  <scratch_subdir>  (22) 
/opt/xchem-fragalysis-2/maxwin/BulkDock/SCRATCH/505736/C2340-P158

>  <fragmenstein_runtime>  (22) 
3.5523767471313477

>  <fragmenstein_outcome>  (22) 
too moved

>  <fragmenstein_mode>  (22) 
expansion

>  <fragmenstein_error>  (22) 


$$$$
C2342-P163
     RDKit          3D

 47 48  0  0  0  0  0  0  0  0999 V2000
    2.3118   -4.3512   28.9219 C   0  0  0  0  0  0  0  0  0  0  0  0
    3.2895   -3.4075   29.6038 C   0  0  0  0  0  0  0  0  0  0  0  0
    2.6305   -2.2932   30.4195 C   0  0  0  0  0  0  0  0  0  0  0  0
    2.6650   -2.4749   31.9364 C   0  0  0  0  0  0  0  0  0  0  0  0
    2.0550   -3.7596   32.5019 C   0  0  0  0  0  0  0  0  0  0  0  0
    2.8128   -4.1240   33.7806 C   0  0  0  0  0  0  0  0  0  0  0  0
    0.3688   -3.5667   32.9801 S   0  0  0  0  0  4  0  0  0  0  0  0
   -0.2570   -5.0710   33.4859 C   0  0  0  0  0  0  0  0  0  0  0  0
   -0.3862   -5.1680   34.8254 C   0  0  0  0  0  0  0  0  0  0  0  0
   -0.8794   -6.3906   35.4205 C   0  0  0  0  0  0  0  0  0  0  0  0
   -1.2526   -7.4276   34.6555 C   0  0  0  0  0  0  0  0  0  0  0  0
   -1.1047   -7.3572   33.2442 C   0  0  0  0  0  0  0  0  0  0  0  0
   -1.3798   -8.2085   32.2784 N   0  0  0  0  0  0  0  0  0  0  0  0
   -0.9811   -7.6454   31.0935 N   0  0  0  0  0  0  0  0  0  0  0  0
   -0.4716   -6.4652   31.3708 C   0  0  0  0  0  0  0  0  0  0  0  0
   -0.5779   -6.1863   32.7050 N   0  0  0  0  0  0  0  0  0  0  0  0
   -0.6164   -2.6251   31.8677 C   0  0  0  0  0  0  0  0  0  0  0  0
   -1.9618   -2.3257   32.5107 C   0  0  0  0  0  0  0  0  0  0  0  0
   -0.7826   -3.1796   30.4715 C   0  0  0  0  0  0  0  0  0  0  0  0
   -1.1108   -2.0975   29.4541 C   0  0  0  0  0  0  0  0  0  0  0  0
    2.8522   -5.0038   28.2276 H   0  0  0  0  0  0  0  0  0  0  0  0
    1.8125   -4.9999   29.6410 H   0  0  0  0  0  0  0  0  0  0  0  0
    1.5640   -3.8021   28.3431 H   0  0  0  0  0  0  0  0  0  0  0  0
    3.9987   -3.9784   30.2139 H   0  0  0  0  0  0  0  0  0  0  0  0
    3.8827   -2.9351   28.8101 H   0  0  0  0  0  0  0  0  0  0  0  0
    3.1837   -1.3668   30.2105 H   0  0  0  0  0  0  0  0  0  0  0  0
    1.6222   -2.0961   30.0685 H   0  0  0  0  0  0  0  0  0  0  0  0
    3.7279   -2.4329   32.2130 H   0  0  0  0  0  0  0  0  0  0  0  0
    2.2117   -1.5944   32.4089 H   0  0  0  0  0  0  0  0  0  0  0  0
    2.1183   -4.5947   31.8034 H   0  0  0  0  0  0  0  0  0  0  0  0
    3.8810   -4.2557   33.5737 H   0  0  0  0  0  0  0  0  0  0  0  0
    2.7109   -3.3508   34.5506 H   0  0  0  0  0  0  0  0  0  0  0  0
    2.4615   -5.0696   34.2051 H   0  0  0  0  0  0  0  0  0  0  0  0
    0.4239   -2.7884   34.0874 H   0  0  0  0  0  0  0  0  0  0  0  0
   -0.1524   -4.3542   35.5057 H   0  0  0  0  0  0  0  0  0  0  0  0
   -0.9751   -6.4261   36.5016 H   0  0  0  0  0  0  0  0  0  0  0  0
   -1.6658   -8.3176   35.1053 H   0  0  0  0  0  0  0  0  0  0  0  0
   -0.0339   -5.7956   30.6536 H   0  0  0  0  0  0  0  0  0  0  0  0
   -0.0823   -1.6690   31.8026 H   0  0  0  0  0  0  0  0  0  0  0  0
   -2.5382   -1.6013   31.9278 H   0  0  0  0  0  0  0  0  0  0  0  0
   -2.5630   -3.2253   32.6137 H   0  0  0  0  0  0  0  0  0  0  0  0
   -1.8323   -1.9032   33.5135 H   0  0  0  0  0  0  0  0  0  0  0  0
   -1.5828   -3.9166   30.4703 H   0  0  0  0  0  0  0  0  0  0  0  0
    0.1155   -3.6948   30.1502 H   0  0  0  0  0  0  0  0  0  0  0  0
   -0.2926   -1.3796   29.3495 H   0  0  0  0  0  0  0  0  0  0  0  0
   -1.2848   -2.5442   28.4715 H   0  0  0  0  0  0  0  0  0  0  0  0
   -1.9980   -1.5302   29.7331 H   0  0  0  0  0  0  0  0  0  0  0  0
  1  2  1  0
  2  3  1  0
  3  4  1  0
  4  5  1  0
  5  6  1  0
  5  7  1  0
  7  8  1  0
  8  9  2  0
  9 10  1  0
 10 11  2  0
 11 12  1  0
 12 13  2  0
 13 14  1  0
 14 15  2  0
 15 16  1  0
  7 17  1  0
 17 18  1  0
 17 19  1  0
 19 20  1  0
 16  8  1  0
 16 12  1  0
  1 21  1  0
  1 22  1  0
  1 23  1  0
  2 24  1  0
  2 25  1  0
  3 26  1  0
  3 27  1  0
  4 28  1  0
  4 29  1  0
  5 30  1  0
  6 31  1  0
  6 32  1  0
  6 33  1  0
  7 34  1  0
  9 35  1  0
 10 36  1  0
 11 37  1  0
 15 38  1  0
 17 39  1  0
 18 40  1  0
 18 41  1  0
 18 42  1  0
 19 43  1  0
 19 44  1  0
 20 45  1  0
 20 46  1  0
 20 47  1  0
M  END
>  <Energy>  (23) 
55.74134798177851

>  <compound_id>  (23) 
2342

>  <target_id>  (23) 
1

>  <reference_id>  (23) 
163

>  <inspiration_ids>  (23) 
[163, 162]

>  <energy_score>  (23) 
-63.05777603130444

>  <distance_score>  (23) 
1.4918495131782334

>  <path>  (23) 
/opt/xchem-fragalysis-2/maxwin/BulkDock/SCRATCH/505736/C2342-P163/C2342-P163.minimised.mol

>  <scratch_subdir>  (23) 
/opt/xchem-fragalysis-2/maxwin/BulkDock/SCRATCH/505736/C2342-P163

>  <fragmenstein_runtime>  (23) 
1.9759521484375

>  <fragmenstein_outcome>  (23) 
too moved

>  <fragmenstein_mode>  (23) 
expansion

>  <fragmenstein_error>  (23) 


$$$$
C2342-P162
     RDKit          3D

 47 48  0  0  0  0  0  0  0  0999 V2000
    2.2400   -3.8749   28.8202 C   0  0  0  0  0  0  0  0  0  0  0  0
    3.4734   -3.7130   29.6915 C   0  0  0  0  0  0  0  0  0  0  0  0
    3.4595   -2.5373   30.6724 C   0  0  0  0  0  0  0  0  0  0  0  0
    2.2312   -2.4074   31.5650 C   0  0  0  0  0  0  0  0  0  0  0  0
    1.9037   -3.6503   32.3985 C   0  0  0  0  0  0  0  0  0  0  0  0
    2.8730   -3.7874   33.5656 C   0  0  0  0  0  0  0  0  0  0  0  0
    0.2850   -3.5696   33.0942 S   0  0  0  0  0  4  0  0  0  0  0  0
   -0.2090   -5.1382   33.5585 C   0  0  0  0  0  0  0  0  0  0  0  0
   -0.2898   -5.3105   34.8946 C   0  0  0  0  0  0  0  0  0  0  0  0
   -0.6946   -6.5934   35.4389 C   0  0  0  0  0  0  0  0  0  0  0  0
   -1.0315   -7.6149   34.6341 C   0  0  0  0  0  0  0  0  0  0  0  0
   -0.9390   -7.4581   33.2256 C   0  0  0  0  0  0  0  0  0  0  0  0
   -1.2027   -8.2678   32.2217 N   0  0  0  0  0  0  0  0  0  0  0  0
   -0.8385   -7.6318   31.0616 N   0  0  0  0  0  0  0  0  0  0  0  0
   -0.3719   -6.4470   31.3901 C   0  0  0  0  0  0  0  0  0  0  0  0
   -0.4824   -6.2360   32.7361 N   0  0  0  0  0  0  0  0  0  0  0  0
   -0.8157   -2.6434   32.0789 C   0  0  0  0  0  0  0  0  0  0  0  0
   -2.1502   -2.4055   32.7570 C   0  0  0  0  0  0  0  0  0  0  0  0
   -0.9708   -3.1283   30.6517 C   0  0  0  0  0  0  0  0  0  0  0  0
   -1.5038   -2.0516   29.7210 C   0  0  0  0  0  0  0  0  0  0  0  0
    2.5001   -4.4319   27.9137 H   0  0  0  0  0  0  0  0  0  0  0  0
    1.4812   -4.4643   29.3328 H   0  0  0  0  0  0  0  0  0  0  0  0
    1.8225   -2.9107   28.5171 H   0  0  0  0  0  0  0  0  0  0  0  0
    3.6542   -4.6466   30.2326 H   0  0  0  0  0  0  0  0  0  0  0  0
    4.3420   -3.5783   29.0341 H   0  0  0  0  0  0  0  0  0  0  0  0
    4.3616   -2.5930   31.2933 H   0  0  0  0  0  0  0  0  0  0  0  0
    3.5555   -1.6081   30.0952 H   0  0  0  0  0  0  0  0  0  0  0  0
    2.3669   -1.5444   32.2305 H   0  0  0  0  0  0  0  0  0  0  0  0
    1.4152   -2.1234   30.9033 H   0  0  0  0  0  0  0  0  0  0  0  0
    1.9345   -4.5537   31.7854 H   0  0  0  0  0  0  0  0  0  0  0  0
    3.9039   -3.8870   33.2116 H   0  0  0  0  0  0  0  0  0  0  0  0
    2.8281   -2.9208   34.2348 H   0  0  0  0  0  0  0  0  0  0  0  0
    2.6548   -4.6778   34.1648 H   0  0  0  0  0  0  0  0  0  0  0  0
    0.4108   -2.8380   34.2271 H   0  0  0  0  0  0  0  0  0  0  0  0
   -0.0924   -4.5160   35.6079 H   0  0  0  0  0  0  0  0  0  0  0  0
   -0.7476   -6.6994   36.5188 H   0  0  0  0  0  0  0  0  0  0  0  0
   -1.3535   -8.5627   35.0471 H   0  0  0  0  0  0  0  0  0  0  0  0
    0.0347   -5.7242   30.7041 H   0  0  0  0  0  0  0  0  0  0  0  0
   -0.3370   -1.6551   32.0562 H   0  0  0  0  0  0  0  0  0  0  0  0
   -2.6376   -1.5133   32.3481 H   0  0  0  0  0  0  0  0  0  0  0  0
   -2.8413   -3.2288   32.6099 H   0  0  0  0  0  0  0  0  0  0  0  0
   -2.0345   -2.2420   33.8336 H   0  0  0  0  0  0  0  0  0  0  0  0
   -1.6374   -3.9844   30.6393 H   0  0  0  0  0  0  0  0  0  0  0  0
   -0.0283   -3.4811   30.2514 H   0  0  0  0  0  0  0  0  0  0  0  0
   -0.8647   -1.1631   29.7381 H   0  0  0  0  0  0  0  0  0  0  0  0
   -1.5292   -2.4215   28.6921 H   0  0  0  0  0  0  0  0  0  0  0  0
   -2.5195   -1.7516   29.9926 H   0  0  0  0  0  0  0  0  0  0  0  0
  1  2  1  0
  2  3  1  0
  3  4  1  0
  4  5  1  0
  5  6  1  0
  5  7  1  0
  7  8  1  0
  8  9  2  0
  9 10  1  0
 10 11  2  0
 11 12  1  0
 12 13  2  0
 13 14  1  0
 14 15  2  0
 15 16  1  0
  7 17  1  0
 17 18  1  0
 17 19  1  0
 19 20  1  0
 16  8  1  0
 16 12  1  0
  1 21  1  0
  1 22  1  0
  1 23  1  0
  2 24  1  0
  2 25  1  0
  3 26  1  0
  3 27  1  0
  4 28  1  0
  4 29  1  0
  5 30  1  0
  6 31  1  0
  6 32  1  0
  6 33  1  0
  7 34  1  0
  9 35  1  0
 10 36  1  0
 11 37  1  0
 15 38  1  0
 17 39  1  0
 18 40  1  0
 18 41  1  0
 18 42  1  0
 19 43  1  0
 19 44  1  0
 20 45  1  0
 20 46  1  0
 20 47  1  0
M  END
>  <Energy>  (24) 
51.751427481296517

>  <compound_id>  (24) 
2342

>  <target_id>  (24) 
1

>  <reference_id>  (24) 
162

>  <inspiration_ids>  (24) 
[163, 162]

>  <energy_score>  (24) 
-67.0476965317877

>  <distance_score>  (24) 
1.4065874925954824

>  <path>  (24) 
/opt/xchem-fragalysis-2/maxwin/BulkDock/SCRATCH/505736/C2342-P162/C2342-P162.minimised.mol

>  <scratch_subdir>  (24) 
/opt/xchem-fragalysis-2/maxwin/BulkDock/SCRATCH/505736/C2342-P162

>  <fragmenstein_runtime>  (24) 
1.3990046977996826

>  <fragmenstein_outcome>  (24) 
too moved

>  <fragmenstein_mode>  (24) 
expansion

>  <fragmenstein_error>  (24) 


$$$$
C2343-P163
     RDKit          3D

 49 53  0  0  0  0  0  0  0  0999 V2000
    0.8825   -3.5797   29.0898 C   0  0  0  0  0  0  0  0  0  0  0  0
    2.1065   -3.0792   29.3066 C   0  0  0  0  0  0  0  0  0  0  0  0
    2.5854   -2.3276   30.5173 C   0  0  0  0  0  0  0  0  0  0  0  0
    1.6939   -2.3653   31.6617 N   0  0  0  0  0  0  0  0  0  0  0  0
    1.4502   -3.4306   32.4787 C   0  0  0  0  0  0  0  0  0  0  0  0
    2.0530   -5.0213   32.1398 S   0  0  0  0  0  0  0  0  0  0  0  0
    1.0909   -5.8790   33.2762 C   0  0  0  0  0  0  0  0  0  0  0  0
    1.4074   -5.8218   34.5764 C   0  0  0  0  0  0  0  0  0  0  0  0
    0.5961   -6.4962   35.5862 C   0  0  0  0  0  0  0  0  0  0  0  0
    1.1778   -6.2013   36.9493 C   0  0  0  0  0  0  0  0  0  0  0  0
    0.4909   -6.6052   38.2154 C   0  0  0  0  0  0  0  0  0  0  0  0
   -0.2743   -5.6797   38.9302 C   0  0  0  0  0  0  0  0  0  0  0  0
   -0.7139   -6.0227   40.1978 C   0  0  0  0  0  0  0  0  0  0  0  0
   -0.4667   -7.2155   40.7795 N   0  0  0  0  0  0  0  0  0  0  0  0
    0.2474   -8.1082   40.0609 C   0  0  0  0  0  0  0  0  0  0  0  0
    0.7436   -7.8491   38.7940 C   0  0  0  0  0  0  0  0  0  0  0  0
   -0.4768   -7.2258   35.1964 C   0  0  0  0  0  0  0  0  0  0  0  0
   -0.7939   -7.3392   33.7974 C   0  0  0  0  0  0  0  0  0  0  0  0
   -1.6983   -8.0201   33.1217 N   0  0  0  0  0  0  0  0  0  0  0  0
   -1.5126   -7.7917   31.7739 N   0  0  0  0  0  0  0  0  0  0  0  0
   -0.5126   -6.9519   31.6576 C   0  0  0  0  0  0  0  0  0  0  0  0
   -0.0007   -6.6484   32.8918 N   0  0  0  0  0  0  0  0  0  0  0  0
    0.6852   -3.0546   33.4766 N   0  0  0  0  0  0  0  0  0  0  0  0
    0.3676   -1.7317   33.2839 N   0  0  0  0  0  0  0  0  0  0  0  0
    0.9375   -1.3317   32.1641 C   0  0  0  0  0  0  0  0  0  0  0  0
    0.7729   -0.0447   31.5238 C   0  0  0  0  0  0  0  0  0  0  0  0
    1.5982    1.0364   31.8340 C   0  0  0  0  0  0  0  0  0  0  0  0
    1.4621    2.2262   31.1230 C   0  0  0  0  0  0  0  0  0  0  0  0
    0.4990    2.2918   30.1303 C   0  0  0  0  0  0  0  0  0  0  0  0
   -0.3316    1.2709   29.8280 N   0  0  0  0  0  0  0  0  0  0  0  0
   -0.1840    0.1284   30.5316 C   0  0  0  0  0  0  0  0  0  0  0  0
    0.0577   -3.4760   29.7883 H   0  0  0  0  0  0  0  0  0  0  0  0
    0.6459   -4.0782   28.1581 H   0  0  0  0  0  0  0  0  0  0  0  0
    2.8489   -3.1974   28.5185 H   0  0  0  0  0  0  0  0  0  0  0  0
    3.5452   -2.7403   30.8503 H   0  0  0  0  0  0  0  0  0  0  0  0
    2.7757   -1.2850   30.2449 H   0  0  0  0  0  0  0  0  0  0  0  0
    2.2548   -5.2260   34.9133 H   0  0  0  0  0  0  0  0  0  0  0  0
    1.3422   -5.1147   37.0240 H   0  0  0  0  0  0  0  0  0  0  0  0
    2.1911   -6.6313   36.9827 H   0  0  0  0  0  0  0  0  0  0  0  0
   -0.4961   -4.6946   38.5326 H   0  0  0  0  0  0  0  0  0  0  0  0
   -1.3052   -5.3309   40.7914 H   0  0  0  0  0  0  0  0  0  0  0  0
    0.4237   -9.0661   40.5443 H   0  0  0  0  0  0  0  0  0  0  0  0
    1.3458   -8.5995   38.2957 H   0  0  0  0  0  0  0  0  0  0  0  0
   -1.0998   -7.7550   35.9075 H   0  0  0  0  0  0  0  0  0  0  0  0
   -0.1213   -6.5577   30.7317 H   0  0  0  0  0  0  0  0  0  0  0  0
    2.3488    0.9567   32.6160 H   0  0  0  0  0  0  0  0  0  0  0  0
    2.0903    3.0843   31.3361 H   0  0  0  0  0  0  0  0  0  0  0  0
    0.3515    3.1974   29.5457 H   0  0  0  0  0  0  0  0  0  0  0  0
   -0.8650   -0.6697   30.2461 H   0  0  0  0  0  0  0  0  0  0  0  0
  1  2  2  0
  2  3  1  0
  3  4  1  0
  4  5  1  0
  5  6  1  0
  6  7  1  0
  7  8  2  0
  8  9  1  0
  9 10  1  0
 10 11  1  0
 11 12  2  0
 12 13  1  0
 13 14  2  0
 14 15  1  0
 15 16  2  0
  9 17  2  0
 17 18  1  0
 18 19  2  0
 19 20  1  0
 20 21  2  0
 21 22  1  0
  5 23  2  0
 23 24  1  0
 24 25  2  0
 25 26  1  0
 26 27  2  0
 27 28  1  0
 28 29  2  0
 29 30  1  0
 30 31  2  0
 25  4  1  0
 31 26  1  0
 22  7  1  0
 16 11  1  0
 22 18  1  0
  1 32  1  0
  1 33  1  0
  2 34  1  0
  3 35  1  0
  3 36  1  0
  8 37  1  0
 10 38  1  0
 10 39  1  0
 12 40  1  0
 13 41  1  0
 15 42  1  0
 16 43  1  0
 17 44  1  0
 21 45  1  0
 27 46  1  0
 28 47  1  0
 29 48  1  0
 31 49  1  0
M  END
>  <Energy>  (25) 
97.893485357296385

>  <compound_id>  (25) 
2343

>  <target_id>  (25) 
1

>  <reference_id>  (25) 
163

>  <inspiration_ids>  (25) 
[163, 164]

>  <energy_score>  (25) 
-30.09307750399219

>  <distance_score>  (25) 
0.6902585245257652

>  <path>  (25) 
/opt/xchem-fragalysis-2/maxwin/BulkDock/SCRATCH/505736/C2343-P163/C2343-P163.minimised.mol

>  <scratch_subdir>  (25) 
/opt/xchem-fragalysis-2/maxwin/BulkDock/SCRATCH/505736/C2343-P163

>  <fragmenstein_runtime>  (25) 
1.8672378063201904

>  <fragmenstein_outcome>  (25) 
acceptable

>  <fragmenstein_mode>  (25) 
expansion

>  <fragmenstein_error>  (25) 


$$$$
C2343-P164
     RDKit          3D

 49 53  0  0  0  0  0  0  0  0999 V2000
    0.7634   -3.5699   29.1839 C   0  0  0  0  0  0  0  0  0  0  0  0
    2.0141   -3.1085   29.3226 C   0  0  0  0  0  0  0  0  0  0  0  0
    2.5925   -2.4079   30.5198 C   0  0  0  0  0  0  0  0  0  0  0  0
    1.7429   -2.4162   31.6956 N   0  0  0  0  0  0  0  0  0  0  0  0
    1.4913   -3.4746   32.5197 C   0  0  0  0  0  0  0  0  0  0  0  0
    2.0512   -5.0817   32.1693 S   0  0  0  0  0  0  0  0  0  0  0  0
    1.0767   -5.9248   33.3084 C   0  0  0  0  0  0  0  0  0  0  0  0
    1.3810   -5.8500   34.6108 C   0  0  0  0  0  0  0  0  0  0  0  0
    0.5580   -6.5065   35.6224 C   0  0  0  0  0  0  0  0  0  0  0  0
    1.1167   -6.1787   36.9871 C   0  0  0  0  0  0  0  0  0  0  0  0
    0.4505   -6.6303   38.2481 C   0  0  0  0  0  0  0  0  0  0  0  0
   -0.2836   -5.7232   39.0177 C   0  0  0  0  0  0  0  0  0  0  0  0
   -0.7055   -6.1126   40.2774 C   0  0  0  0  0  0  0  0  0  0  0  0
   -0.4668   -7.3327   40.8025 N   0  0  0  0  0  0  0  0  0  0  0  0
    0.2168   -8.2061   40.0320 C   0  0  0  0  0  0  0  0  0  0  0  0
    0.6914   -7.9030   38.7664 C   0  0  0  0  0  0  0  0  0  0  0  0
   -0.5110   -7.2425   35.2349 C   0  0  0  0  0  0  0  0  0  0  0  0
   -0.8169   -7.3759   33.8363 C   0  0  0  0  0  0  0  0  0  0  0  0
   -1.7247   -8.0587   33.1668 N   0  0  0  0  0  0  0  0  0  0  0  0
   -1.5292   -7.8475   31.8170 N   0  0  0  0  0  0  0  0  0  0  0  0
   -0.5167   -7.0228   31.6941 C   0  0  0  0  0  0  0  0  0  0  0  0
   -0.0128   -6.7008   32.9267 N   0  0  0  0  0  0  0  0  0  0  0  0
    0.7447   -3.0789   33.5243 N   0  0  0  0  0  0  0  0  0  0  0  0
    0.4403   -1.7523   33.3234 N   0  0  0  0  0  0  0  0  0  0  0  0
    0.9986   -1.3702   32.1915 C   0  0  0  0  0  0  0  0  0  0  0  0
    0.8288   -0.0970   31.5228 C   0  0  0  0  0  0  0  0  0  0  0  0
    1.6621    0.9884   31.7942 C   0  0  0  0  0  0  0  0  0  0  0  0
    1.5364    2.1524   31.0391 C   0  0  0  0  0  0  0  0  0  0  0  0
    0.5765    2.1889   30.0413 C   0  0  0  0  0  0  0  0  0  0  0  0
   -0.2660    1.1664   29.7797 N   0  0  0  0  0  0  0  0  0  0  0  0
   -0.1288    0.0501   30.5261 C   0  0  0  0  0  0  0  0  0  0  0  0
   -0.0041   -3.4717   29.9453 H   0  0  0  0  0  0  0  0  0  0  0  0
    0.4339   -4.0229   28.2587 H   0  0  0  0  0  0  0  0  0  0  0  0
    2.6928   -3.2137   28.4778 H   0  0  0  0  0  0  0  0  0  0  0  0
    3.5404   -2.8795   30.8039 H   0  0  0  0  0  0  0  0  0  0  0  0
    2.8294   -1.3721   30.2580 H   0  0  0  0  0  0  0  0  0  0  0  0
    2.2254   -5.2501   34.9483 H   0  0  0  0  0  0  0  0  0  0  0  0
    1.2176   -5.0842   37.0571 H   0  0  0  0  0  0  0  0  0  0  0  0
    2.1521   -6.5517   37.0296 H   0  0  0  0  0  0  0  0  0  0  0  0
   -0.4967   -4.7183   38.6679 H   0  0  0  0  0  0  0  0  0  0  0  0
   -1.2736   -5.4375   40.9113 H   0  0  0  0  0  0  0  0  0  0  0  0
    0.3857   -9.1862   40.4721 H   0  0  0  0  0  0  0  0  0  0  0  0
    1.2684   -8.6425   38.2241 H   0  0  0  0  0  0  0  0  0  0  0  0
   -1.1455   -7.7536   35.9490 H   0  0  0  0  0  0  0  0  0  0  0  0
   -0.1126   -6.6504   30.7648 H   0  0  0  0  0  0  0  0  0  0  0  0
    2.4146    0.9301   32.5762 H   0  0  0  0  0  0  0  0  0  0  0  0
    2.1715    3.0128   31.2205 H   0  0  0  0  0  0  0  0  0  0  0  0
    0.4364    3.0737   29.4240 H   0  0  0  0  0  0  0  0  0  0  0  0
   -0.8161   -0.7519   30.2682 H   0  0  0  0  0  0  0  0  0  0  0  0
  1  2  2  0
  2  3  1  0
  3  4  1  0
  4  5  1  0
  5  6  1  0
  6  7  1  0
  7  8  2  0
  8  9  1  0
  9 10  1  0
 10 11  1  0
 11 12  2  0
 12 13  1  0
 13 14  2  0
 14 15  1  0
 15 16  2  0
  9 17  2  0
 17 18  1  0
 18 19  2  0
 19 20  1  0
 20 21  2  0
 21 22  1  0
  5 23  2  0
 23 24  1  0
 24 25  2  0
 25 26  1  0
 26 27  2  0
 27 28  1  0
 28 29  2  0
 29 30  1  0
 30 31  2  0
 25  4  1  0
 31 26  1  0
 22  7  1  0
 16 11  1  0
 22 18  1  0
  1 32  1  0
  1 33  1  0
  2 34  1  0
  3 35  1  0
  3 36  1  0
  8 37  1  0
 10 38  1  0
 10 39  1  0
 12 40  1  0
 13 41  1  0
 15 42  1  0
 16 43  1  0
 17 44  1  0
 21 45  1  0
 27 46  1  0
 28 47  1  0
 29 48  1  0
 31 49  1  0
M  END
>  <Energy>  (26) 
97.798523146221171

>  <compound_id>  (26) 
2343

>  <target_id>  (26) 
1

>  <reference_id>  (26) 
164

>  <inspiration_ids>  (26) 
[163, 164]

>  <energy_score>  (26) 
-30.18803971506827

>  <distance_score>  (26) 
0.6975280423121941

>  <path>  (26) 
/opt/xchem-fragalysis-2/maxwin/BulkDock/SCRATCH/505736/C2343-P164/C2343-P164.minimised.mol

>  <scratch_subdir>  (26) 
/opt/xchem-fragalysis-2/maxwin/BulkDock/SCRATCH/505736/C2343-P164

>  <fragmenstein_runtime>  (26) 
1.8736014366149902

>  <fragmenstein_outcome>  (26) 
acceptable

>  <fragmenstein_mode>  (26) 
expansion

>  <fragmenstein_error>  (26) 


$$$$
C2345-P163
     RDKit          3D

 68 72  0  0  0  0  0  0  0  0999 V2000
    1.2440   -3.2991   29.1136 C   0  0  0  0  0  0  0  0  0  0  0  0
    2.2105   -3.4434   30.0291 C   0  0  0  0  0  0  0  0  0  0  0  0
    2.9730   -2.3157   30.6681 C   0  0  0  0  0  0  0  0  0  0  0  0
    2.5225   -1.9844   32.0087 N   0  0  0  0  0  0  0  0  0  0  0  0
    2.7881   -2.6515   33.1754 C   0  0  0  0  0  0  0  0  0  0  0  0
    3.3145   -4.2987   33.2584 S   0  0  0  0  0  0  0  0  0  0  0  0
    1.7099   -5.1768   33.2723 C   0  0  0  0  0  0  0  0  0  0  0  0
    0.5197   -4.2561   33.4848 C   0  0  0  0  0  0  0  0  0  0  0  0
   -0.8469   -4.7087   33.0627 C   0  0  0  0  0  0  0  0  0  0  0  0
   -0.8831   -5.3237   31.6734 C   0  0  0  0  0  0  0  0  0  0  0  0
   -1.0834   -6.7860   31.7704 C   0  0  0  0  0  0  0  0  0  0  0  0
   -1.9522   -7.3353   32.5815 N   0  0  0  0  0  0  0  0  0  0  0  0
   -1.1281   -7.7571   33.5741 C   0  0  0  0  0  0  0  0  0  0  0  0
   -1.5455   -7.6541   35.0007 C   0  0  0  0  0  0  0  0  0  0  0  0
   -0.6611   -6.7971   35.8971 C   0  0  0  0  0  0  0  0  0  0  0  0
   -1.2272   -5.4296   36.3355 C   0  0  0  0  0  0  0  0  0  0  0  0
   -0.6876   -4.8092   37.6186 C   0  0  0  0  0  0  0  0  0  0  0  0
    1.0503   -4.2923   37.4819 S   0  0  0  0  0  0  0  0  0  0  0  0
    1.7778   -5.8759   37.5461 C   0  0  0  0  0  0  0  0  0  0  0  0
    2.4498   -6.2921   36.5214 N   0  0  0  0  0  0  0  0  0  0  0  0
    2.9773   -7.5716   36.5591 C   0  0  0  0  0  0  0  0  0  0  0  0
    3.3551   -8.1546   35.5449 O   0  0  0  0  0  0  0  0  0  0  0  0
    2.9903   -8.1352   37.8939 C   0  0  0  0  0  0  0  0  0  0  0  0
    3.9772   -9.4074   38.4251 S   0  0  0  0  0  0  0  0  0  0  0  0
    3.2099   -9.4195   39.9655 C   0  0  0  0  0  0  0  0  0  0  0  0
    2.2927   -8.3985   40.1011 C   0  0  0  0  0  0  0  0  0  0  0  0
    2.2210   -7.6463   38.9148 C   0  0  0  0  0  0  0  0  0  0  0  0
    1.5115   -6.5320   38.7161 N   0  0  0  0  0  0  0  0  0  0  0  0
    0.1272   -7.9122   33.1442 N   0  0  0  0  0  0  0  0  0  0  0  0
   -0.0029   -7.6019   31.8441 N   0  0  0  0  0  0  0  0  0  0  0  0
    2.2974   -1.9818   34.1923 N   0  0  0  0  0  0  0  0  0  0  0  0
    1.6323   -0.8907   33.6933 N   0  0  0  0  0  0  0  0  0  0  0  0
    1.7547   -0.8978   32.3809 C   0  0  0  0  0  0  0  0  0  0  0  0
    1.1818    0.0797   31.4824 C   0  0  0  0  0  0  0  0  0  0  0  0
    1.8608    1.2630   31.1937 C   0  0  0  0  0  0  0  0  0  0  0  0
    1.3165    2.1583   30.2791 C   0  0  0  0  0  0  0  0  0  0  0  0
    0.1049    1.8374   29.6904 C   0  0  0  0  0  0  0  0  0  0  0  0
   -0.5999    0.7210   29.9833 N   0  0  0  0  0  0  0  0  0  0  0  0
   -0.0498   -0.1304   30.8764 C   0  0  0  0  0  0  0  0  0  0  0  0
    0.9155   -2.3205   28.7662 H   0  0  0  0  0  0  0  0  0  0  0  0
    0.7402   -4.1563   28.6790 H   0  0  0  0  0  0  0  0  0  0  0  0
    2.5084   -4.4492   30.3114 H   0  0  0  0  0  0  0  0  0  0  0  0
    2.9227   -1.4118   30.0518 H   0  0  0  0  0  0  0  0  0  0  0  0
    4.0354   -2.5780   30.7349 H   0  0  0  0  0  0  0  0  0  0  0  0
    1.6797   -5.6673   32.3013 H   0  0  0  0  0  0  0  0  0  0  0  0
    1.7611   -5.9550   34.0297 H   0  0  0  0  0  0  0  0  0  0  0  0
    0.5043   -3.8822   34.5101 H   0  0  0  0  0  0  0  0  0  0  0  0
    0.6167   -3.3831   32.8432 H   0  0  0  0  0  0  0  0  0  0  0  0
   -1.4818   -3.8107   33.0474 H   0  0  0  0  0  0  0  0  0  0  0  0
   -1.2993   -5.3476   33.7955 H   0  0  0  0  0  0  0  0  0  0  0  0
   -1.6887   -4.8261   31.1507 H   0  0  0  0  0  0  0  0  0  0  0  0
    0.0054   -5.0916   31.0817 H   0  0  0  0  0  0  0  0  0  0  0  0
   -1.6255   -8.6225   35.4779 H   0  0  0  0  0  0  0  0  0  0  0  0
   -2.5559   -7.2648   35.0068 H   0  0  0  0  0  0  0  0  0  0  0  0
   -0.4733   -7.3796   36.8065 H   0  0  0  0  0  0  0  0  0  0  0  0
    0.3040   -6.6481   35.4235 H   0  0  0  0  0  0  0  0  0  0  0  0
   -1.1184   -4.6714   35.5699 H   0  0  0  0  0  0  0  0  0  0  0  0
   -2.2943   -5.5202   36.4569 H   0  0  0  0  0  0  0  0  0  0  0  0
   -1.2643   -3.9027   37.8351 H   0  0  0  0  0  0  0  0  0  0  0  0
   -0.8449   -5.4792   38.4693 H   0  0  0  0  0  0  0  0  0  0  0  0
    3.4861  -10.1635   40.7008 H   0  0  0  0  0  0  0  0  0  0  0  0
    1.7333   -8.2205   41.0105 H   0  0  0  0  0  0  0  0  0  0  0  0
    1.0985   -5.9977   39.4709 H   0  0  0  0  0  0  0  0  0  0  0  0
    0.8229   -7.6197   31.2607 H   0  0  0  0  0  0  0  0  0  0  0  0
    2.8113    1.4887   31.6710 H   0  0  0  0  0  0  0  0  0  0  0  0
    1.8230    3.0834   30.0262 H   0  0  0  0  0  0  0  0  0  0  0  0
   -0.3557    2.4971   28.9579 H   0  0  0  0  0  0  0  0  0  0  0  0
   -0.6400   -1.0189   31.0831 H   0  0  0  0  0  0  0  0  0  0  0  0
  1  2  2  0
  2  3  1  0
  3  4  1  0
  4  5  1  0
  5  6  1  0
  6  7  1  0
  7  8  1  0
  8  9  1  0
  9 10  1  0
 10 11  1  0
 11 12  2  0
 12 13  1  0
 13 14  1  0
 14 15  1  0
 15 16  1  0
 16 17  1  0
 17 18  1  0
 18 19  1  0
 19 20  2  0
 20 21  1  0
 21 22  2  0
 21 23  1  0
 23 24  1  0
 24 25  1  0
 25 26  2  0
 26 27  1  0
 27 28  1  0
 13 29  2  0
 29 30  1  0
  5 31  2  0
 31 32  1  0
 32 33  2  0
 33 34  1  0
 34 35  2  0
 35 36  1  0
 36 37  2  0
 37 38  1  0
 38 39  2  0
 33  4  1  0
 39 34  1  0
 30 11  1  0
 28 19  1  0
 27 23  2  0
  1 40  1  0
  1 41  1  0
  2 42  1  0
  3 43  1  0
  3 44  1  0
  7 45  1  0
  7 46  1  0
  8 47  1  0
  8 48  1  0
  9 49  1  0
  9 50  1  0
 10 51  1  0
 10 52  1  0
 14 53  1  0
 14 54  1  0
 15 55  1  0
 15 56  1  0
 16 57  1  0
 16 58  1  0
 17 59  1  0
 17 60  1  0
 25 61  1  0
 26 62  1  0
 28 63  1  0
 30 64  1  0
 35 65  1  0
 36 66  1  0
 37 67  1  0
 39 68  1  0
M  END
>  <Energy>  (27) 
69.981825477027698

>  <compound_id>  (27) 
2345

>  <target_id>  (27) 
1

>  <reference_id>  (27) 
163

>  <inspiration_ids>  (27) 
[163, 166]

>  <energy_score>  (27) 
-1.659800043985797

>  <distance_score>  (27) 
1.912216216945776

>  <path>  (27) 
/opt/xchem-fragalysis-2/maxwin/BulkDock/SCRATCH/505736/C2345-P163/C2345-P163.minimised.mol

>  <scratch_subdir>  (27) 
/opt/xchem-fragalysis-2/maxwin/BulkDock/SCRATCH/505736/C2345-P163

>  <fragmenstein_runtime>  (27) 
3.799297332763672

>  <fragmenstein_outcome>  (27) 
too moved

>  <fragmenstein_mode>  (27) 
expansion

>  <fragmenstein_error>  (27) 


$$$$
C2345-P166
     RDKit          3D

 68 72  0  0  0  0  0  0  0  0999 V2000
    1.0009   -3.6529   29.1701 C   0  0  0  0  0  0  0  0  0  0  0  0
    1.9519   -3.5402   30.1047 C   0  0  0  0  0  0  0  0  0  0  0  0
    2.5419   -2.2377   30.5600 C   0  0  0  0  0  0  0  0  0  0  0  0
    2.0332   -1.8476   31.8616 N   0  0  0  0  0  0  0  0  0  0  0  0
    2.4188   -2.3140   33.0794 C   0  0  0  0  0  0  0  0  0  0  0  0
    3.6824   -3.4495   33.3226 S   0  0  0  0  0  0  0  0  0  0  0  0
    2.7063   -4.8336   33.8949 C   0  0  0  0  0  0  0  0  0  0  0  0
    2.0242   -4.6227   35.2483 C   0  0  0  0  0  0  0  0  0  0  0  0
    0.5616   -4.1683   35.3674 C   0  0  0  0  0  0  0  0  0  0  0  0
   -0.4439   -4.2974   34.2265 C   0  0  0  0  0  0  0  0  0  0  0  0
   -0.3048   -5.4154   33.2904 C   0  0  0  0  0  0  0  0  0  0  0  0
   -0.9308   -5.5804   32.1484 N   0  0  0  0  0  0  0  0  0  0  0  0
   -0.4901   -6.8090   31.7783 C   0  0  0  0  0  0  0  0  0  0  0  0
   -1.4160   -7.8054   31.3067 C   0  0  0  0  0  0  0  0  0  0  0  0
   -2.1372   -8.5079   32.4721 C   0  0  0  0  0  0  0  0  0  0  0  0
   -2.3186   -7.9258   33.8951 C   0  0  0  0  0  0  0  0  0  0  0  0
   -1.3687   -8.2682   35.0195 C   0  0  0  0  0  0  0  0  0  0  0  0
   -1.0690   -6.9030   36.1572 S   0  0  0  0  0  0  0  0  0  0  0  0
    0.4488   -7.4489   36.7939 C   0  0  0  0  0  0  0  0  0  0  0  0
    1.3372   -7.8012   35.9239 N   0  0  0  0  0  0  0  0  0  0  0  0
    2.5429   -8.2898   36.3760 C   0  0  0  0  0  0  0  0  0  0  0  0
    3.4065   -8.6175   35.5711 O   0  0  0  0  0  0  0  0  0  0  0  0
    2.6340   -8.3782   37.8143 C   0  0  0  0  0  0  0  0  0  0  0  0
    3.9329   -9.0611   38.6568 S   0  0  0  0  0  0  0  0  0  0  0  0
    3.1607   -8.7725   40.1677 C   0  0  0  0  0  0  0  0  0  0  0  0
    1.9344   -8.1557   40.0238 C   0  0  0  0  0  0  0  0  0  0  0  0
    1.6481   -7.9419   38.6618 C   0  0  0  0  0  0  0  0  0  0  0  0
    0.5399   -7.3949   38.1486 N   0  0  0  0  0  0  0  0  0  0  0  0
    0.5600   -7.2595   32.4405 N   0  0  0  0  0  0  0  0  0  0  0  0
    0.4804   -6.5028   33.5135 N   0  0  0  0  0  0  0  0  0  0  0  0
    1.7087   -1.7541   34.0256 N   0  0  0  0  0  0  0  0  0  0  0  0
    0.8668   -0.8530   33.4345 N   0  0  0  0  0  0  0  0  0  0  0  0
    1.1215   -0.8550   32.1413 C   0  0  0  0  0  0  0  0  0  0  0  0
    0.6561    0.1202   31.1879 C   0  0  0  0  0  0  0  0  0  0  0  0
    1.3851    1.2968   30.9934 C   0  0  0  0  0  0  0  0  0  0  0  0
    0.9995    2.1815   29.9955 C   0  0  0  0  0  0  0  0  0  0  0  0
   -0.1105    1.8568   29.2346 C   0  0  0  0  0  0  0  0  0  0  0  0
   -0.8613    0.7487   29.4341 N   0  0  0  0  0  0  0  0  0  0  0  0
   -0.4645   -0.0993   30.4053 C   0  0  0  0  0  0  0  0  0  0  0  0
    0.5801   -2.7908   28.6566 H   0  0  0  0  0  0  0  0  0  0  0  0
    0.5824   -4.6219   28.9235 H   0  0  0  0  0  0  0  0  0  0  0  0
    2.3096   -4.4466   30.5878 H   0  0  0  0  0  0  0  0  0  0  0  0
    2.3309   -1.4384   29.8425 H   0  0  0  0  0  0  0  0  0  0  0  0
    3.6328   -2.3123   30.6206 H   0  0  0  0  0  0  0  0  0  0  0  0
    2.0725   -5.0364   33.0462 H   0  0  0  0  0  0  0  0  0  0  0  0
    3.3979   -5.6782   33.9868 H   0  0  0  0  0  0  0  0  0  0  0  0
    2.1142   -5.5600   35.7938 H   0  0  0  0  0  0  0  0  0  0  0  0
    2.6321   -3.9441   35.8643 H   0  0  0  0  0  0  0  0  0  0  0  0
    0.5717   -3.1048   35.6419 H   0  0  0  0  0  0  0  0  0  0  0  0
    0.1572   -4.5974   36.2870 H   0  0  0  0  0  0  0  0  0  0  0  0
   -1.4485   -4.2972   34.6557 H   0  0  0  0  0  0  0  0  0  0  0  0
   -0.4007   -3.3801   33.6275 H   0  0  0  0  0  0  0  0  0  0  0  0
   -0.8757   -8.5493   30.7073 H   0  0  0  0  0  0  0  0  0  0  0  0
   -2.1240   -7.3334   30.6321 H   0  0  0  0  0  0  0  0  0  0  0  0
   -1.7001   -9.4913   32.5414 H   0  0  0  0  0  0  0  0  0  0  0  0
   -3.1445   -8.6385   32.0750 H   0  0  0  0  0  0  0  0  0  0  0  0
   -3.2528   -8.3608   34.2700 H   0  0  0  0  0  0  0  0  0  0  0  0
   -2.4294   -6.8499   33.8227 H   0  0  0  0  0  0  0  0  0  0  0  0
   -0.4454   -8.6554   34.6229 H   0  0  0  0  0  0  0  0  0  0  0  0
   -1.8348   -8.9862   35.6910 H   0  0  0  0  0  0  0  0  0  0  0  0
    3.6510   -9.0686   41.0854 H   0  0  0  0  0  0  0  0  0  0  0  0
    1.2965   -7.8956   40.8588 H   0  0  0  0  0  0  0  0  0  0  0  0
   -0.2751   -7.1205   38.6824 H   0  0  0  0  0  0  0  0  0  0  0  0
    0.9971   -6.7725   34.3453 H   0  0  0  0  0  0  0  0  0  0  0  0
    2.2577    1.5173   31.6034 H   0  0  0  0  0  0  0  0  0  0  0  0
    1.5444    3.1004   29.8099 H   0  0  0  0  0  0  0  0  0  0  0  0
   -0.4599    2.5118   28.4388 H   0  0  0  0  0  0  0  0  0  0  0  0
   -1.0757   -0.9911   30.5148 H   0  0  0  0  0  0  0  0  0  0  0  0
  1  2  2  0
  2  3  1  0
  3  4  1  0
  4  5  1  0
  5  6  1  0
  6  7  1  0
  7  8  1  0
  8  9  1  0
  9 10  1  0
 10 11  1  0
 11 12  2  0
 12 13  1  0
 13 14  1  0
 14 15  1  0
 15 16  1  0
 16 17  1  0
 17 18  1  0
 18 19  1  0
 19 20  2  0
 20 21  1  0
 21 22  2  0
 21 23  1  0
 23 24  1  0
 24 25  1  0
 25 26  2  0
 26 27  1  0
 27 28  1  0
 13 29  2  0
 29 30  1  0
  5 31  2  0
 31 32  1  0
 32 33  2  0
 33 34  1  0
 34 35  2  0
 35 36  1  0
 36 37  2  0
 37 38  1  0
 38 39  2  0
 33  4  1  0
 39 34  1  0
 30 11  1  0
 28 19  1  0
 27 23  2  0
  1 40  1  0
  1 41  1  0
  2 42  1  0
  3 43  1  0
  3 44  1  0
  7 45  1  0
  7 46  1  0
  8 47  1  0
  8 48  1  0
  9 49  1  0
  9 50  1  0
 10 51  1  0
 10 52  1  0
 14 53  1  0
 14 54  1  0
 15 55  1  0
 15 56  1  0
 16 57  1  0
 16 58  1  0
 17 59  1  0
 17 60  1  0
 25 61  1  0
 26 62  1  0
 28 63  1  0
 30 64  1  0
 35 65  1  0
 36 66  1  0
 37 67  1  0
 39 68  1  0
M  END
>  <Energy>  (28) 
56.358482165941645

>  <compound_id>  (28) 
2345

>  <target_id>  (28) 
1

>  <reference_id>  (28) 
166

>  <inspiration_ids>  (28) 
[163, 166]

>  <energy_score>  (28) 
-15.283143355070138

>  <distance_score>  (28) 
1.8012060706479929

>  <path>  (28) 
/opt/xchem-fragalysis-2/maxwin/BulkDock/SCRATCH/505736/C2345-P166/C2345-P166.minimised.mol

>  <scratch_subdir>  (28) 
/opt/xchem-fragalysis-2/maxwin/BulkDock/SCRATCH/505736/C2345-P166

>  <fragmenstein_runtime>  (28) 
4.203705787658691

>  <fragmenstein_outcome>  (28) 
too moved

>  <fragmenstein_mode>  (28) 
expansion

>  <fragmenstein_error>  (28) 


$$$$
C2348-P163
     RDKit          3D

 70 76  0  0  0  0  0  0  0  0999 V2000
    5.1233   -5.1515   28.8998 O   0  0  0  0  0  0  0  0  0  0  0  0
    5.2283   -4.9205   27.7245 C   0  0  0  0  0  0  0  0  0  0  0  0
    6.1303   -5.4666   26.7313 N   0  0  0  0  0  0  0  0  0  0  0  0
    7.1158   -6.5266   26.8232 C   0  0  0  0  0  0  0  0  0  0  0  0
    8.2381   -6.3095   27.8683 C   0  0  0  0  0  0  0  0  0  0  0  0
    8.2443   -5.4161   28.8331 N   0  0  0  0  0  0  0  0  0  0  0  0
    9.1044   -5.8749   29.8145 N   0  0  0  0  0  0  0  0  0  0  0  0
    9.6051   -7.0220   29.4063 C   0  0  0  0  0  0  0  0  0  0  0  0
   10.3334   -7.9733   30.1845 C   0  0  0  0  0  0  0  0  0  0  0  0
   10.5288   -7.9483   31.5503 C   0  0  0  0  0  0  0  0  0  0  0  0
   11.2411   -9.0904   32.0212 C   0  0  0  0  0  0  0  0  0  0  0  0
   11.5795   -9.9467   30.9976 C   0  0  0  0  0  0  0  0  0  0  0  0
   11.0365   -9.3746   29.4820 S   0  0  0  0  0  0  0  0  0  0  0  0
    9.2178   -7.2306   28.1145 N   0  0  0  0  0  0  0  0  0  0  0  0
    7.4977   -7.1497   25.4614 C   0  0  0  0  0  0  0  0  0  0  0  0
    6.3587   -8.1604   25.6288 C   0  0  0  0  0  0  0  0  0  0  0  0
    6.3874   -7.8711   27.1288 C   0  0  0  0  0  0  0  0  0  0  0  0
    4.1913   -3.9571   27.0393 C   0  0  0  0  0  0  0  0  0  0  0  0
    2.9092   -5.1662   26.4864 S   0  0  0  0  0  0  0  0  0  0  0  0
    4.8227   -3.0798   25.6093 Cl  0  0  0  0  0  0  0  0  0  0  0  0
    3.6428   -2.9367   27.9119 N   0  0  0  0  0  0  0  0  0  0  0  0
    2.6600   -3.0550   28.8576 C   0  0  0  0  0  0  0  0  0  0  0  0
    2.3053   -2.1104   29.7316 C   0  0  0  0  0  0  0  0  0  0  0  0
    1.1439   -2.2530   30.6602 C   0  0  0  0  0  0  0  0  0  0  0  0
    1.5233   -2.2452   32.0602 N   0  0  0  0  0  0  0  0  0  0  0  0
    1.7802   -3.3200   32.8647 C   0  0  0  0  0  0  0  0  0  0  0  0
    2.1346   -4.9029   32.2725 S   0  0  0  0  0  0  0  0  0  0  0  0
    0.8782   -5.8061   33.0545 C   0  0  0  0  0  0  0  0  0  0  0  0
    0.7511   -5.8706   34.3969 C   0  0  0  0  0  0  0  0  0  0  0  0
   -0.3011   -6.6842   34.9856 C   0  0  0  0  0  0  0  0  0  0  0  0
   -1.1344   -7.4106   34.2197 C   0  0  0  0  0  0  0  0  0  0  0  0
   -0.9887   -7.3923   32.8075 C   0  0  0  0  0  0  0  0  0  0  0  0
   -1.6152   -8.0211   31.8342 N   0  0  0  0  0  0  0  0  0  0  0  0
   -1.0562   -7.6262   30.6431 N   0  0  0  0  0  0  0  0  0  0  0  0
   -0.1049   -6.7633   30.9205 C   0  0  0  0  0  0  0  0  0  0  0  0
    0.0027   -6.5801   32.2760 N   0  0  0  0  0  0  0  0  0  0  0  0
    1.8018   -2.9375   34.1190 N   0  0  0  0  0  0  0  0  0  0  0  0
    1.5989   -1.5792   34.1443 N   0  0  0  0  0  0  0  0  0  0  0  0
    1.5007   -1.1528   32.9002 C   0  0  0  0  0  0  0  0  0  0  0  0
    1.3460    0.2243   32.4758 C   0  0  0  0  0  0  0  0  0  0  0  0
    2.3386    0.8875   31.7501 C   0  0  0  0  0  0  0  0  0  0  0  0
    2.1219    2.1920   31.3134 C   0  0  0  0  0  0  0  0  0  0  0  0
    0.9193    2.7955   31.6326 C   0  0  0  0  0  0  0  0  0  0  0  0
   -0.0481    2.1907   32.3576 N   0  0  0  0  0  0  0  0  0  0  0  0
    0.1892    0.9262   32.7723 C   0  0  0  0  0  0  0  0  0  0  0  0
    5.9901   -4.9757   25.8494 H   0  0  0  0  0  0  0  0  0  0  0  0
   10.1598   -7.1496   32.1851 H   0  0  0  0  0  0  0  0  0  0  0  0
   11.4946   -9.2697   33.0593 H   0  0  0  0  0  0  0  0  0  0  0  0
   12.1222  -10.8799   31.0685 H   0  0  0  0  0  0  0  0  0  0  0  0
    9.3905   -8.0756   27.5941 H   0  0  0  0  0  0  0  0  0  0  0  0
    7.3546   -6.5255   24.5786 H   0  0  0  0  0  0  0  0  0  0  0  0
    8.4876   -7.6155   25.4196 H   0  0  0  0  0  0  0  0  0  0  0  0
    6.6014   -9.1896   25.3546 H   0  0  0  0  0  0  0  0  0  0  0  0
    5.4221   -7.8614   25.1455 H   0  0  0  0  0  0  0  0  0  0  0  0
    5.4099   -7.7580   27.6019 H   0  0  0  0  0  0  0  0  0  0  0  0
    6.9559   -8.6172   27.6969 H   0  0  0  0  0  0  0  0  0  0  0  0
    3.7522   -5.9091   25.7519 H   0  0  0  0  0  0  0  0  0  0  0  0
    4.2607   -2.1369   28.0142 H   0  0  0  0  0  0  0  0  0  0  0  0
    2.1230   -4.0010   28.8459 H   0  0  0  0  0  0  0  0  0  0  0  0
    2.8246   -1.1575   29.7202 H   0  0  0  0  0  0  0  0  0  0  0  0
    0.5754   -3.1716   30.4724 H   0  0  0  0  0  0  0  0  0  0  0  0
    0.4388   -1.4312   30.4913 H   0  0  0  0  0  0  0  0  0  0  0  0
    1.4050   -5.3316   35.0786 H   0  0  0  0  0  0  0  0  0  0  0  0
   -0.3927   -6.6867   36.0689 H   0  0  0  0  0  0  0  0  0  0  0  0
   -1.9115   -8.0246   34.6571 H   0  0  0  0  0  0  0  0  0  0  0  0
    0.5202   -6.2592   30.1990 H   0  0  0  0  0  0  0  0  0  0  0  0
    3.2861    0.4017   31.5313 H   0  0  0  0  0  0  0  0  0  0  0  0
    2.8743    2.7270   30.7441 H   0  0  0  0  0  0  0  0  0  0  0  0
    0.6970    3.8114   31.3131 H   0  0  0  0  0  0  0  0  0  0  0  0
   -0.6069    0.4781   33.3610 H   0  0  0  0  0  0  0  0  0  0  0  0
  1  2  2  0
  2  3  1  0
  3  4  1  0
  4  5  1  0
  5  6  2  0
  6  7  1  0
  7  8  2  0
  8  9  1  0
  9 10  2  0
 10 11  1  0
 11 12  2  0
 12 13  1  0
  8 14  1  0
  4 15  1  0
 15 16  1  0
 16 17  1  0
  2 18  1  0
 18 19  1  0
 18 20  1  0
 18 21  1  0
 21 22  1  0
 22 23  2  3
 23 24  1  0
 24 25  1  0
 25 26  1  0
 26 27  1  0
 27 28  1  0
 28 29  2  0
 29 30  1  0
 30 31  2  0
 31 32  1  0
 32 33  2  0
 33 34  1  0
 34 35  2  0
 35 36  1  0
 26 37  2  0
 37 38  1  0
 38 39  2  0
 39 40  1  0
 40 41  2  0
 41 42  1  0
 42 43  2  0
 43 44  1  0
 44 45  2  0
 17  4  1  0
 39 25  1  0
 45 40  1  0
 14  5  1  0
 36 28  1  0
 13  9  1  0
 36 32  1  0
  3 46  1  0
 10 47  1  0
 11 48  1  0
 12 49  1  0
 14 50  1  0
 15 51  1  0
 15 52  1  0
 16 53  1  0
 16 54  1  0
 17 55  1  0
 17 56  1  0
 19 57  1  0
 21 58  1  0
 22 59  1  0
 23 60  1  0
 24 61  1  0
 24 62  1  0
 29 63  1  0
 30 64  1  0
 31 65  1  0
 35 66  1  0
 41 67  1  0
 42 68  1  0
 43 69  1  0
 45 70  1  0
M  END
>  <Energy>  (29) 
144.12236022485683

>  <compound_id>  (29) 
2348

>  <target_id>  (29) 
1

>  <reference_id>  (29) 
163

>  <inspiration_ids>  (29) 
[163, 175]

>  <energy_score>  (29) 
-70.58545155462667

>  <distance_score>  (29) 
4.431793334959702

>  <path>  (29) 
/opt/xchem-fragalysis-2/maxwin/BulkDock/SCRATCH/505736/C2348-P163/C2348-P163.minimised.mol

>  <scratch_subdir>  (29) 
/opt/xchem-fragalysis-2/maxwin/BulkDock/SCRATCH/505736/C2348-P163

>  <fragmenstein_runtime>  (29) 
25.351136207580566

>  <fragmenstein_outcome>  (29) 
too moved

>  <fragmenstein_mode>  (29) 
expansion

>  <fragmenstein_error>  (29) 


$$$$
C2348-P175
     RDKit          3D

 70 76  0  0  0  0  0  0  0  0999 V2000
    2.6528   -4.3314   26.5337 O   0  0  0  0  0  0  0  0  0  0  0  0
    3.7114   -3.8167   26.7761 C   0  0  0  0  0  0  0  0  0  0  0  0
    5.0414   -4.3902   26.8755 N   0  0  0  0  0  0  0  0  0  0  0  0
    5.5211   -5.7440   26.6196 C   0  0  0  0  0  0  0  0  0  0  0  0
    6.2224   -6.3486   27.8823 C   0  0  0  0  0  0  0  0  0  0  0  0
    6.0977   -5.8965   29.1113 N   0  0  0  0  0  0  0  0  0  0  0  0
    6.8634   -6.6984   29.9290 N   0  0  0  0  0  0  0  0  0  0  0  0
    7.3952   -7.6521   29.1919 C   0  0  0  0  0  0  0  0  0  0  0  0
    8.1794   -8.7490   29.6683 C   0  0  0  0  0  0  0  0  0  0  0  0
    8.6409   -8.9334   30.9571 C   0  0  0  0  0  0  0  0  0  0  0  0
    9.3624  -10.1528   31.1121 C   0  0  0  0  0  0  0  0  0  0  0  0
    9.4312  -10.8623   29.9348 C   0  0  0  0  0  0  0  0  0  0  0  0
    8.6366  -10.0548   28.6544 S   0  0  0  0  0  0  0  0  0  0  0  0
    7.0415   -7.4435   27.8904 N   0  0  0  0  0  0  0  0  0  0  0  0
    6.3685   -5.8268   25.3239 C   0  0  0  0  0  0  0  0  0  0  0  0
    5.6117   -7.1080   24.9506 C   0  0  0  0  0  0  0  0  0  0  0  0
    4.5173   -6.7197   25.9518 C   0  0  0  0  0  0  0  0  0  0  0  0
    3.8315   -2.2385   26.9368 C   0  0  0  0  0  0  0  0  0  0  0  0
    2.2730   -1.4416   27.4167 S   0  0  0  0  0  0  0  0  0  0  0  0
    4.4228   -1.6227   25.3191 Cl  0  0  0  0  0  0  0  0  0  0  0  0
    4.8848   -1.8877   27.9156 N   0  0  0  0  0  0  0  0  0  0  0  0
    4.6769   -1.8784   29.2935 C   0  0  0  0  0  0  0  0  0  0  0  0
    3.8673   -2.6468   30.0396 C   0  0  0  0  0  0  0  0  0  0  0  0
    3.6013   -2.3946   31.4976 C   0  0  0  0  0  0  0  0  0  0  0  0
    2.1917   -2.5161   31.8495 N   0  0  0  0  0  0  0  0  0  0  0  0
    1.5684   -3.6302   32.3585 C   0  0  0  0  0  0  0  0  0  0  0  0
    2.3602   -5.1361   32.6754 S   0  0  0  0  0  0  0  0  0  0  0  0
    0.9812   -6.0268   33.2359 C   0  0  0  0  0  0  0  0  0  0  0  0
    0.7414   -6.1609   34.5570 C   0  0  0  0  0  0  0  0  0  0  0  0
   -0.4130   -6.9237   35.0012 C   0  0  0  0  0  0  0  0  0  0  0  0
   -1.2404   -7.5150   34.1210 C   0  0  0  0  0  0  0  0  0  0  0  0
   -0.9814   -7.4194   32.7287 C   0  0  0  0  0  0  0  0  0  0  0  0
   -1.5631   -7.9454   31.6697 N   0  0  0  0  0  0  0  0  0  0  0  0
   -0.8868   -7.5099   30.5556 N   0  0  0  0  0  0  0  0  0  0  0  0
    0.0802   -6.7182   30.9640 C   0  0  0  0  0  0  0  0  0  0  0  0
    0.1066   -6.6543   32.3335 N   0  0  0  0  0  0  0  0  0  0  0  0
    0.2950   -3.3894   32.5436 N   0  0  0  0  0  0  0  0  0  0  0  0
    0.0579   -2.1061   32.1545 N   0  0  0  0  0  0  0  0  0  0  0  0
    1.1918   -1.5637   31.7421 C   0  0  0  0  0  0  0  0  0  0  0  0
    1.2709   -0.1992   31.2376 C   0  0  0  0  0  0  0  0  0  0  0  0
    2.1933    0.7433   31.6935 C   0  0  0  0  0  0  0  0  0  0  0  0
    2.1356    2.0552   31.2189 C   0  0  0  0  0  0  0  0  0  0  0  0
    1.1396    2.3918   30.3167 C   0  0  0  0  0  0  0  0  0  0  0  0
    0.2175    1.5173   29.8714 N   0  0  0  0  0  0  0  0  0  0  0  0
    0.3034    0.2484   30.3379 C   0  0  0  0  0  0  0  0  0  0  0  0
    5.6950   -3.6649   27.1813 H   0  0  0  0  0  0  0  0  0  0  0  0
    8.4589   -8.2259   31.7584 H   0  0  0  0  0  0  0  0  0  0  0  0
    9.8015  -10.4947   32.0416 H   0  0  0  0  0  0  0  0  0  0  0  0
    9.9076  -11.8194   29.7679 H   0  0  0  0  0  0  0  0  0  0  0  0
    7.3191   -8.0100   27.1028 H   0  0  0  0  0  0  0  0  0  0  0  0
    6.2028   -5.0016   24.6223 H   0  0  0  0  0  0  0  0  0  0  0  0
    7.4478   -5.9530   25.4488 H   0  0  0  0  0  0  0  0  0  0  0  0
    6.1386   -8.0318   25.2076 H   0  0  0  0  0  0  0  0  0  0  0  0
    5.2824   -7.1595   23.9138 H   0  0  0  0  0  0  0  0  0  0  0  0
    3.6573   -6.2606   25.4603 H   0  0  0  0  0  0  0  0  0  0  0  0
    4.1463   -7.5418   26.5715 H   0  0  0  0  0  0  0  0  0  0  0  0
    1.4954   -2.5105   27.1949 H   0  0  0  0  0  0  0  0  0  0  0  0
    5.3041   -1.0110   27.6012 H   0  0  0  0  0  0  0  0  0  0  0  0
    5.2383   -1.0689   29.7629 H   0  0  0  0  0  0  0  0  0  0  0  0
    3.3280   -3.4746   29.5877 H   0  0  0  0  0  0  0  0  0  0  0  0
    3.9398   -1.4029   31.8072 H   0  0  0  0  0  0  0  0  0  0  0  0
    4.1709   -3.1082   32.1004 H   0  0  0  0  0  0  0  0  0  0  0  0
    1.3682   -5.7080   35.3190 H   0  0  0  0  0  0  0  0  0  0  0  0
   -0.5862   -7.0199   36.0696 H   0  0  0  0  0  0  0  0  0  0  0  0
   -2.0863   -8.1025   34.4555 H   0  0  0  0  0  0  0  0  0  0  0  0
    0.7716   -6.1852   30.3292 H   0  0  0  0  0  0  0  0  0  0  0  0
    2.9327    0.4920   32.4469 H   0  0  0  0  0  0  0  0  0  0  0  0
    2.8383    2.8068   31.5619 H   0  0  0  0  0  0  0  0  0  0  0  0
    1.0462    3.4023   29.9270 H   0  0  0  0  0  0  0  0  0  0  0  0
   -0.4657   -0.4223   29.9580 H   0  0  0  0  0  0  0  0  0  0  0  0
  1  2  2  0
  2  3  1  0
  3  4  1  0
  4  5  1  0
  5  6  2  0
  6  7  1  0
  7  8  2  0
  8  9  1  0
  9 10  2  0
 10 11  1  0
 11 12  2  0
 12 13  1  0
  8 14  1  0
  4 15  1  0
 15 16  1  0
 16 17  1  0
  2 18  1  0
 18 19  1  0
 18 20  1  0
 18 21  1  0
 21 22  1  0
 22 23  2  3
 23 24  1  0
 24 25  1  0
 25 26  1  0
 26 27  1  0
 27 28  1  0
 28 29  2  0
 29 30  1  0
 30 31  2  0
 31 32  1  0
 32 33  2  0
 33 34  1  0
 34 35  2  0
 35 36  1  0
 26 37  2  0
 37 38  1  0
 38 39  2  0
 39 40  1  0
 40 41  2  0
 41 42  1  0
 42 43  2  0
 43 44  1  0
 44 45  2  0
 17  4  1  0
 39 25  1  0
 45 40  1  0
 14  5  1  0
 36 28  1  0
 13  9  1  0
 36 32  1  0
  3 46  1  0
 10 47  1  0
 11 48  1  0
 12 49  1  0
 14 50  1  0
 15 51  1  0
 15 52  1  0
 16 53  1  0
 16 54  1  0
 17 55  1  0
 17 56  1  0
 19 57  1  0
 21 58  1  0
 22 59  1  0
 23 60  1  0
 24 61  1  0
 24 62  1  0
 29 63  1  0
 30 64  1  0
 31 65  1  0
 35 66  1  0
 41 67  1  0
 42 68  1  0
 43 69  1  0
 45 70  1  0
M  END
>  <Energy>  (30) 
124.33790365287395

>  <compound_id>  (30) 
2348

>  <target_id>  (30) 
1

>  <reference_id>  (30) 
175

>  <inspiration_ids>  (30) 
[163, 175]

>  <energy_score>  (30) 
-90.36990812661526

>  <distance_score>  (30) 
4.213966894207599

>  <path>  (30) 
/opt/xchem-fragalysis-2/maxwin/BulkDock/SCRATCH/505736/C2348-P175/C2348-P175.minimised.mol

>  <scratch_subdir>  (30) 
/opt/xchem-fragalysis-2/maxwin/BulkDock/SCRATCH/505736/C2348-P175

>  <fragmenstein_runtime>  (30) 
19.641499042510986

>  <fragmenstein_outcome>  (30) 
too moved

>  <fragmenstein_mode>  (30) 
expansion

>  <fragmenstein_error>  (30) 


$$$$
C2349-P163
     RDKit          3D

 58 63  0  0  0  0  0  0  0  0999 V2000
    2.8346   -6.6270   25.3544 O   0  0  0  0  0  0  0  0  0  0  0  0
    2.1956   -5.6152   25.5370 C   0  0  0  0  0  0  0  0  0  0  0  0
    0.8900   -4.9997   24.1313 C   0  0  0  0  0  0  0  0  0  0  0  0
    0.5796   -5.7481   22.6667 S   0  0  0  0  0  0  0  0  0  0  0  0
    1.4713   -3.5094   22.9073 Cl  0  0  0  0  0  0  0  0  0  0  0  0
    2.1182   -4.7584   26.7016 N   0  0  0  0  0  0  0  0  0  0  0  0
    3.2141   -3.6105   26.6088 C   0  0  0  0  0  0  0  0  0  0  0  0
    4.6596   -3.7403   26.9737 C   0  0  0  0  0  0  0  0  0  0  0  0
    5.7441   -2.9145   26.5636 C   0  0  0  0  0  0  0  0  0  0  0  0
    6.9387   -3.3291   27.1194 C   0  0  0  0  0  0  0  0  0  0  0  0
    6.7256   -4.6657   28.1767 S   0  0  0  0  0  0  0  0  0  0  0  0
    5.0804   -4.6865   27.8494 C   0  0  0  0  0  0  0  0  0  0  0  0
    4.0828   -5.5838   28.3965 C   0  0  0  0  0  0  0  0  0  0  0  0
    2.7143   -4.9129   28.0969 C   0  0  0  0  0  0  0  0  0  0  0  0
    2.0056   -3.9646   29.1383 C   0  0  0  0  0  0  0  0  0  0  0  0
    2.8315   -3.2056   30.1789 C   0  0  0  0  0  0  0  0  0  0  0  0
    1.9994   -2.8485   31.3302 N   0  0  0  0  0  0  0  0  0  0  0  0
    1.6695   -3.6726   32.3817 C   0  0  0  0  0  0  0  0  0  0  0  0
    2.3358   -5.2463   32.6196 S   0  0  0  0  0  0  0  0  0  0  0  0
    0.9591   -6.0178   33.3370 C   0  0  0  0  0  0  0  0  0  0  0  0
    0.7925   -6.0304   34.6761 C   0  0  0  0  0  0  0  0  0  0  0  0
   -0.3330   -6.7472   35.2544 C   0  0  0  0  0  0  0  0  0  0  0  0
   -1.2067   -7.4163   34.4811 C   0  0  0  0  0  0  0  0  0  0  0  0
   -1.0414   -7.4218   33.0711 C   0  0  0  0  0  0  0  0  0  0  0  0
   -1.7073   -8.0042   32.0955 N   0  0  0  0  0  0  0  0  0  0  0  0
   -1.0975   -7.6818   30.9096 N   0  0  0  0  0  0  0  0  0  0  0  0
   -0.0663   -6.9212   31.1954 C   0  0  0  0  0  0  0  0  0  0  0  0
    0.0300   -6.7143   32.5475 N   0  0  0  0  0  0  0  0  0  0  0  0
    0.7707   -3.1016   33.1411 N   0  0  0  0  0  0  0  0  0  0  0  0
    0.4828   -1.8866   32.5916 N   0  0  0  0  0  0  0  0  0  0  0  0
    1.2243   -1.7173   31.5104 C   0  0  0  0  0  0  0  0  0  0  0  0
    1.1341   -0.5425   30.6602 C   0  0  0  0  0  0  0  0  0  0  0  0
    2.2353    0.2523   30.3417 C   0  0  0  0  0  0  0  0  0  0  0  0
    2.0507    1.4141   29.5914 C   0  0  0  0  0  0  0  0  0  0  0  0
    0.7666    1.7463   29.1880 C   0  0  0  0  0  0  0  0  0  0  0  0
   -0.3210    1.0052   29.4826 N   0  0  0  0  0  0  0  0  0  0  0  0
   -0.1150   -0.1110   30.2186 C   0  0  0  0  0  0  0  0  0  0  0  0
   -0.1589   -4.9667   24.3974 H   0  0  0  0  0  0  0  0  0  0  0  0
    1.0984   -4.8442   21.8164 H   0  0  0  0  0  0  0  0  0  0  0  0
    2.8157   -2.6883   27.0494 H   0  0  0  0  0  0  0  0  0  0  0  0
    3.3428   -3.5114   25.5273 H   0  0  0  0  0  0  0  0  0  0  0  0
    5.6673   -2.0754   25.8804 H   0  0  0  0  0  0  0  0  0  0  0  0
    7.9267   -2.9206   26.9524 H   0  0  0  0  0  0  0  0  0  0  0  0
    4.1478   -6.5579   27.8987 H   0  0  0  0  0  0  0  0  0  0  0  0
    4.2091   -5.7366   29.4685 H   0  0  0  0  0  0  0  0  0  0  0  0
    2.1303   -5.8223   28.3317 H   0  0  0  0  0  0  0  0  0  0  0  0
    1.2643   -4.5785   29.6647 H   0  0  0  0  0  0  0  0  0  0  0  0
    1.3756   -3.2357   28.6091 H   0  0  0  0  0  0  0  0  0  0  0  0
    3.6713   -3.7933   30.5577 H   0  0  0  0  0  0  0  0  0  0  0  0
    3.2501   -2.2905   29.7527 H   0  0  0  0  0  0  0  0  0  0  0  0
    1.4689   -5.5214   35.3576 H   0  0  0  0  0  0  0  0  0  0  0  0
   -0.4410   -6.7359   36.3359 H   0  0  0  0  0  0  0  0  0  0  0  0
   -2.0291   -7.9757   34.9076 H   0  0  0  0  0  0  0  0  0  0  0  0
    0.6279   -6.5208   30.4782 H   0  0  0  0  0  0  0  0  0  0  0  0
    3.2303    0.0050   30.7010 H   0  0  0  0  0  0  0  0  0  0  0  0
    2.8870    2.0579   29.3402 H   0  0  0  0  0  0  0  0  0  0  0  0
    0.5720    2.6462   28.6098 H   0  0  0  0  0  0  0  0  0  0  0  0
   -1.0198   -0.6650   30.4597 H   0  0  0  0  0  0  0  0  0  0  0  0
  1  2  2  0
  2  3  1  0
  3  4  1  0
  3  5  1  0
  2  6  1  0
  6  7  1  0
  7  8  1  0
  8  9  1  0
  9 10  2  0
 10 11  1  0
 11 12  1  0
 12 13  1  0
 13 14  1  0
 14 15  1  0
 15 16  1  0
 16 17  1  0
 17 18  1  0
 18 19  1  0
 19 20  1  0
 20 21  2  0
 21 22  1  0
 22 23  2  0
 23 24  1  0
 24 25  2  0
 25 26  1  0
 26 27  2  0
 27 28  1  0
 18 29  2  0
 29 30  1  0
 30 31  2  0
 31 32  1  0
 32 33  2  0
 33 34  1  0
 34 35  2  0
 35 36  1  0
 36 37  2  0
 14  6  1  0
 31 17  1  0
 37 32  1  0
 12  8  2  0
 28 20  1  0
 28 24  1  0
  3 38  1  0
  4 39  1  0
  7 40  1  0
  7 41  1  0
  9 42  1  0
 10 43  1  0
 13 44  1  0
 13 45  1  0
 14 46  1  0
 15 47  1  0
 15 48  1  0
 16 49  1  0
 16 50  1  0
 21 51  1  0
 22 52  1  0
 23 53  1  0
 27 54  1  0
 33 55  1  0
 34 56  1  0
 35 57  1  0
 37 58  1  0
M  END
>  <Energy>  (31) 
306.02117659447759

>  <compound_id>  (31) 
2349

>  <target_id>  (31) 
1

>  <reference_id>  (31) 
163

>  <inspiration_ids>  (31) 
[163, 177]

>  <energy_score>  (31) 
105.04290650251107

>  <distance_score>  (31) 
4.107057619110888

>  <path>  (31) 
/opt/xchem-fragalysis-2/maxwin/BulkDock/SCRATCH/505736/C2349-P163/C2349-P163.minimised.mol

>  <scratch_subdir>  (31) 
/opt/xchem-fragalysis-2/maxwin/BulkDock/SCRATCH/505736/C2349-P163

>  <fragmenstein_runtime>  (31) 
15.291921138763428

>  <fragmenstein_outcome>  (31) 
too moved

>  <fragmenstein_mode>  (31) 
expansion

>  <fragmenstein_error>  (31) 


$$$$
C2349-P177
     RDKit          3D

 58 63  0  0  0  0  0  0  0  0999 V2000
    1.0884   -4.9113   22.6817 O   0  0  0  0  0  0  0  0  0  0  0  0
    1.1972   -3.7588   22.4782 C   0  0  0  0  0  0  0  0  0  0  0  0
    1.0153   -3.4616   20.6631 C   0  0  0  0  0  0  0  0  0  0  0  0
    1.3386   -1.3384   19.4244 S   0  0  0  0  0  0  0  0  0  0  0  0
    0.9938   -2.4211   18.4575 Cl  0  0  0  0  0  0  0  0  0  0  0  0
    1.3314   -2.7674   23.9317 N   0  0  0  0  0  0  0  0  0  0  0  0
    2.8489   -2.5775   24.3610 C   0  0  0  0  0  0  0  0  0  0  0  0
    3.7783   -3.1399   25.4149 C   0  0  0  0  0  0  0  0  0  0  0  0
    5.1347   -2.7683   25.6256 C   0  0  0  0  0  0  0  0  0  0  0  0
    5.7337   -3.4454   26.6674 C   0  0  0  0  0  0  0  0  0  0  0  0
    4.6107   -4.4685   27.4589 S   0  0  0  0  0  0  0  0  0  0  0  0
    3.4017   -3.9602   26.4109 C   0  0  0  0  0  0  0  0  0  0  0  0
    2.0147   -4.3360   26.3891 C   0  0  0  0  0  0  0  0  0  0  0  0
    1.2055   -3.1571   25.6647 C   0  0  0  0  0  0  0  0  0  0  0  0
    1.1700   -1.9375   26.7747 C   0  0  0  0  0  0  0  0  0  0  0  0
    1.5822   -2.1238   28.2928 C   0  0  0  0  0  0  0  0  0  0  0  0
    0.5494   -2.2832   29.3030 N   0  0  0  0  0  0  0  0  0  0  0  0
    0.3268   -3.3321   30.1647 C   0  0  0  0  0  0  0  0  0  0  0  0
    1.4419   -4.6239   30.4358 S   0  0  0  0  0  0  0  0  0  0  0  0
    0.6955   -5.3450   31.8289 C   0  0  0  0  0  0  0  0  0  0  0  0
    0.9807   -4.9367   33.0839 C   0  0  0  0  0  0  0  0  0  0  0  0
    0.3370   -5.5885   34.2190 C   0  0  0  0  0  0  0  0  0  0  0  0
   -0.5319   -6.6020   34.0474 C   0  0  0  0  0  0  0  0  0  0  0  0
   -0.8294   -7.0450   32.7330 C   0  0  0  0  0  0  0  0  0  0  0  0
   -1.6126   -7.9930   32.2721 N   0  0  0  0  0  0  0  0  0  0  0  0
   -1.5120   -8.0021   30.9044 N   0  0  0  0  0  0  0  0  0  0  0  0
   -0.6562   -7.0684   30.5627 C   0  0  0  0  0  0  0  0  0  0  0  0
   -0.2036   -6.4062   31.6726 N   0  0  0  0  0  0  0  0  0  0  0  0
   -0.7700   -3.1128   30.8532 N   0  0  0  0  0  0  0  0  0  0  0  0
   -1.1224   -1.8064   30.6453 N   0  0  0  0  0  0  0  0  0  0  0  0
   -0.2255   -1.2695   29.8386 C   0  0  0  0  0  0  0  0  0  0  0  0
   -0.0092    0.1499   29.6520 C   0  0  0  0  0  0  0  0  0  0  0  0
    1.1041    0.7921   30.2070 C   0  0  0  0  0  0  0  0  0  0  0  0
    1.2764    2.1603   30.0223 C   0  0  0  0  0  0  0  0  0  0  0  0
    0.3160    2.8428   29.2991 C   0  0  0  0  0  0  0  0  0  0  0  0
   -0.7824    2.2546   28.7739 N   0  0  0  0  0  0  0  0  0  0  0  0
   -0.9215    0.9248   28.9619 C   0  0  0  0  0  0  0  0  0  0  0  0
    0.4850   -4.3266   20.2615 H   0  0  0  0  0  0  0  0  0  0  0  0
    0.0757   -1.2605   19.0056 H   0  0  0  0  0  0  0  0  0  0  0  0
    2.8451   -1.5761   24.7692 H   0  0  0  0  0  0  0  0  0  0  0  0
    3.4442   -2.7169   23.5139 H   0  0  0  0  0  0  0  0  0  0  0  0
    5.6334   -2.0431   25.0086 H   0  0  0  0  0  0  0  0  0  0  0  0
    6.7626   -3.3839   26.9962 H   0  0  0  0  0  0  0  0  0  0  0  0
    2.1219   -5.2729   25.8879 H   0  0  0  0  0  0  0  0  0  0  0  0
    1.5823   -4.5628   27.3653 H   0  0  0  0  0  0  0  0  0  0  0  0
    0.1465   -3.4369   25.6564 H   0  0  0  0  0  0  0  0  0  0  0  0
    1.9126   -1.2074   26.4660 H   0  0  0  0  0  0  0  0  0  0  0  0
    0.1841   -1.4639   26.7313 H   0  0  0  0  0  0  0  0  0  0  0  0
    2.3277   -2.8950   28.4483 H   0  0  0  0  0  0  0  0  0  0  0  0
    2.1189   -1.2095   28.5791 H   0  0  0  0  0  0  0  0  0  0  0  0
    1.6647   -4.1192   33.2921 H   0  0  0  0  0  0  0  0  0  0  0  0
    0.5687   -5.2194   35.2147 H   0  0  0  0  0  0  0  0  0  0  0  0
   -1.0179   -7.0880   34.8861 H   0  0  0  0  0  0  0  0  0  0  0  0
   -0.3470   -6.8406   29.5529 H   0  0  0  0  0  0  0  0  0  0  0  0
    1.8353    0.2362   30.7882 H   0  0  0  0  0  0  0  0  0  0  0  0
    2.1321    2.6832   30.4343 H   0  0  0  0  0  0  0  0  0  0  0  0
    0.3920    3.9142   29.1309 H   0  0  0  0  0  0  0  0  0  0  0  0
   -1.8132    0.4912   28.5231 H   0  0  0  0  0  0  0  0  0  0  0  0
  1  2  2  0
  2  3  1  0
  3  4  1  0
  3  5  1  0
  2  6  1  0
  6  7  1  0
  7  8  1  0
  8  9  1  0
  9 10  2  0
 10 11  1  0
 11 12  1  0
 12 13  1  0
 13 14  1  0
 14 15  1  0
 15 16  1  0
 16 17  1  0
 17 18  1  0
 18 19  1  0
 19 20  1  0
 20 21  2  0
 21 22  1  0
 22 23  2  0
 23 24  1  0
 24 25  2  0
 25 26  1  0
 26 27  2  0
 27 28  1  0
 18 29  2  0
 29 30  1  0
 30 31  2  0
 31 32  1  0
 32 33  2  0
 33 34  1  0
 34 35  2  0
 35 36  1  0
 36 37  2  0
 14  6  1  0
 31 17  1  0
 37 32  1  0
 12  8  2  0
 28 20  1  0
 28 24  1  0
  3 38  1  0
  4 39  1  0
  7 40  1  0
  7 41  1  0
  9 42  1  0
 10 43  1  0
 13 44  1  0
 13 45  1  0
 14 46  1  0
 15 47  1  0
 15 48  1  0
 16 49  1  0
 16 50  1  0
 21 51  1  0
 22 52  1  0
 23 53  1  0
 27 54  1  0
 33 55  1  0
 34 56  1  0
 35 57  1  0
 37 58  1  0
M  END
>  <Energy>  (32) 
718.07635855357432

>  <compound_id>  (32) 
2349

>  <target_id>  (32) 
1

>  <reference_id>  (32) 
177

>  <inspiration_ids>  (32) 
[163, 177]

>  <energy_score>  (32) 
517.0980884615935

>  <distance_score>  (32) 
4.133547084857223

>  <path>  (32) 
/opt/xchem-fragalysis-2/maxwin/BulkDock/SCRATCH/505736/C2349-P177/C2349-P177.minimised.mol

>  <scratch_subdir>  (32) 
/opt/xchem-fragalysis-2/maxwin/BulkDock/SCRATCH/505736/C2349-P177

>  <fragmenstein_runtime>  (32) 
9.1825270652771

>  <fragmenstein_outcome>  (32) 
too moved

>  <fragmenstein_mode>  (32) 
expansion

>  <fragmenstein_error>  (32) 


$$$$
C2350-P163
     RDKit          3D

 46 52  0  0  0  0  0  0  0  0999 V2000
   -1.7910   -0.5924   27.6934 F   0  0  0  0  0  0  0  0  0  0  0  0
   -0.7519   -1.2535   28.2175 C   0  0  0  0  0  0  0  0  0  0  0  0
    0.5126   -0.6849   28.1178 C   0  0  0  0  0  0  0  0  0  0  0  0
    1.6147   -1.2910   28.7138 C   0  0  0  0  0  0  0  0  0  0  0  0
    1.3602   -2.4602   29.4394 C   0  0  0  0  0  0  0  0  0  0  0  0
    0.1167   -3.0846   29.4985 C   0  0  0  0  0  0  0  0  0  0  0  0
   -0.9680   -2.4689   28.8684 C   0  0  0  0  0  0  0  0  0  0  0  0
    0.1591   -4.2087   30.3043 N   0  0  0  0  0  0  0  0  0  0  0  0
    1.3432   -4.1878   30.8690 C   0  0  0  0  0  0  0  0  0  0  0  0
    2.0869   -3.1150   30.4005 N   0  0  0  0  0  0  0  0  0  0  0  0
    2.9820   -2.4154   31.3053 C   0  0  0  0  0  0  0  0  0  0  0  0
    2.3077   -2.2369   32.5789 N   0  0  0  0  0  0  0  0  0  0  0  0
    1.5395   -1.1835   33.0131 C   0  0  0  0  0  0  0  0  0  0  0  0
    1.2405    0.0079   32.2378 C   0  0  0  0  0  0  0  0  0  0  0  0
    2.2025    0.9709   31.9351 C   0  0  0  0  0  0  0  0  0  0  0  0
    1.8704    2.0371   31.1002 C   0  0  0  0  0  0  0  0  0  0  0  0
    0.5829    2.1049   30.5975 C   0  0  0  0  0  0  0  0  0  0  0  0
   -0.3773    1.2023   30.8902 N   0  0  0  0  0  0  0  0  0  0  0  0
   -0.0345    0.1811   31.7065 C   0  0  0  0  0  0  0  0  0  0  0  0
    0.9565   -1.5549   34.1394 N   0  0  0  0  0  0  0  0  0  0  0  0
    1.1358   -2.9143   34.2969 N   0  0  0  0  0  0  0  0  0  0  0  0
    1.8251   -3.3292   33.2647 C   0  0  0  0  0  0  0  0  0  0  0  0
    1.7453   -4.8805   32.4468 S   0  0  0  0  0  4  0  0  0  0  0  0
    0.5044   -5.8498   33.1040 C   0  0  0  0  0  0  0  0  0  0  0  0
    0.3677   -5.8509   34.4473 C   0  0  0  0  0  0  0  0  0  0  0  0
   -0.6304   -6.6957   35.0751 C   0  0  0  0  0  0  0  0  0  0  0  0
   -1.3956   -7.5198   34.3426 C   0  0  0  0  0  0  0  0  0  0  0  0
   -1.2200   -7.5822   32.9348 C   0  0  0  0  0  0  0  0  0  0  0  0
   -1.7782   -8.3283   32.0059 N   0  0  0  0  0  0  0  0  0  0  0  0
   -1.1986   -8.0161   30.8056 N   0  0  0  0  0  0  0  0  0  0  0  0
   -0.3017   -7.0836   31.0334 C   0  0  0  0  0  0  0  0  0  0  0  0
   -0.2777   -6.7404   32.3591 N   0  0  0  0  0  0  0  0  0  0  0  0
    0.6150    0.2620   27.5963 H   0  0  0  0  0  0  0  0  0  0  0  0
    2.5860   -0.8104   28.6882 H   0  0  0  0  0  0  0  0  0  0  0  0
   -1.9652   -2.8795   28.9312 H   0  0  0  0  0  0  0  0  0  0  0  0
    3.2797   -1.4480   30.8987 H   0  0  0  0  0  0  0  0  0  0  0  0
    3.8748   -3.0306   31.4587 H   0  0  0  0  0  0  0  0  0  0  0  0
    3.2069    0.9057   32.3443 H   0  0  0  0  0  0  0  0  0  0  0  0
    2.5972    2.8023   30.8487 H   0  0  0  0  0  0  0  0  0  0  0  0
    0.2782    2.9136   29.9370 H   0  0  0  0  0  0  0  0  0  0  0  0
   -0.8317   -0.5322   31.9055 H   0  0  0  0  0  0  0  0  0  0  0  0
    2.9531   -5.4857   32.4396 H   0  0  0  0  0  0  0  0  0  0  0  0
    0.9630   -5.2385   35.1177 H   0  0  0  0  0  0  0  0  0  0  0  0
   -0.7463   -6.6322   36.1534 H   0  0  0  0  0  0  0  0  0  0  0  0
   -2.1401   -8.1563   34.8017 H   0  0  0  0  0  0  0  0  0  0  0  0
    0.3378   -6.6474   30.2847 H   0  0  0  0  0  0  0  0  0  0  0  0
  1  2  1  0
  2  3  2  0
  3  4  1  0
  4  5  2  0
  5  6  1  0
  6  7  2  0
  6  8  1  0
  8  9  2  0
  9 10  1  0
 10 11  1  0
 11 12  1  0
 12 13  1  0
 13 14  1  0
 14 15  2  0
 15 16  1  0
 16 17  2  0
 17 18  1  0
 18 19  2  0
 13 20  2  0
 20 21  1  0
 21 22  2  0
 22 23  1  0
 23 24  1  0
 24 25  2  0
 25 26  1  0
 26 27  2  0
 27 28  1  0
 28 29  2  0
 29 30  1  0
 30 31  2  0
 31 32  1  0
  7  2  1  0
 23  9  1  0
 32 24  1  0
 10  5  1  0
 22 12  1  0
 32 28  1  0
 19 14  1  0
  3 33  1  0
  4 34  1  0
  7 35  1  0
 11 36  1  0
 11 37  1  0
 15 38  1  0
 16 39  1  0
 17 40  1  0
 19 41  1  0
 23 42  1  0
 25 43  1  0
 26 44  1  0
 27 45  1  0
 31 46  1  0
M  END
>  <Energy>  (33) 
76.865445672509125

>  <compound_id>  (33) 
2350

>  <target_id>  (33) 
1

>  <reference_id>  (33) 
163

>  <inspiration_ids>  (33) 
[163, 180]

>  <energy_score>  (33) 
-171.02377529020674

>  <distance_score>  (33) 
0.9620764626400873

>  <path>  (33) 
/opt/xchem-fragalysis-2/maxwin/BulkDock/SCRATCH/505736/C2350-P163/C2350-P163.minimised.mol

>  <scratch_subdir>  (33) 
/opt/xchem-fragalysis-2/maxwin/BulkDock/SCRATCH/505736/C2350-P163

>  <fragmenstein_runtime>  (33) 
1.8868625164031982

>  <fragmenstein_outcome>  (33) 
acceptable

>  <fragmenstein_mode>  (33) 
expansion

>  <fragmenstein_error>  (33) 


$$$$
C2350-P180
     RDKit          3D

 46 52  0  0  0  0  0  0  0  0999 V2000
   -1.6652   -0.6566   27.5974 F   0  0  0  0  0  0  0  0  0  0  0  0
   -0.6367   -1.3143   28.1444 C   0  0  0  0  0  0  0  0  0  0  0  0
    0.6286   -0.7464   28.0615 C   0  0  0  0  0  0  0  0  0  0  0  0
    1.7175   -1.3445   28.6881 C   0  0  0  0  0  0  0  0  0  0  0  0
    1.4477   -2.5037   29.4248 C   0  0  0  0  0  0  0  0  0  0  0  0
    0.2049   -3.1297   29.4667 C   0  0  0  0  0  0  0  0  0  0  0  0
   -0.8644   -2.5225   28.8046 C   0  0  0  0  0  0  0  0  0  0  0  0
    0.2301   -4.2423   30.2902 N   0  0  0  0  0  0  0  0  0  0  0  0
    1.4041   -4.2143   30.8758 C   0  0  0  0  0  0  0  0  0  0  0  0
    2.1516   -3.1411   30.4134 N   0  0  0  0  0  0  0  0  0  0  0  0
    3.0160   -2.4217   31.3317 C   0  0  0  0  0  0  0  0  0  0  0  0
    2.3135   -2.2436   32.5896 N   0  0  0  0  0  0  0  0  0  0  0  0
    1.5149   -1.2024   32.9995 C   0  0  0  0  0  0  0  0  0  0  0  0
    1.1821   -0.0352   32.1994 C   0  0  0  0  0  0  0  0  0  0  0  0
    2.1111    0.9540   31.8786 C   0  0  0  0  0  0  0  0  0  0  0  0
    1.7433    1.9921   31.0221 C   0  0  0  0  0  0  0  0  0  0  0  0
    0.4547    2.0058   30.5152 C   0  0  0  0  0  0  0  0  0  0  0  0
   -0.4740    1.0769   30.8251 N   0  0  0  0  0  0  0  0  0  0  0  0
   -0.0975    0.0855   31.6628 C   0  0  0  0  0  0  0  0  0  0  0  0
    0.9323   -1.5724   34.1270 N   0  0  0  0  0  0  0  0  0  0  0  0
    1.1352   -2.9269   34.2998 N   0  0  0  0  0  0  0  0  0  0  0  0
    1.8393   -3.3394   33.2764 C   0  0  0  0  0  0  0  0  0  0  0  0
    1.7835   -4.8969   32.4651 S   0  0  0  0  0  4  0  0  0  0  0  0
    0.5330   -5.8684   33.1043 C   0  0  0  0  0  0  0  0  0  0  0  0
    0.3568   -5.8533   34.4431 C   0  0  0  0  0  0  0  0  0  0  0  0
   -0.6528   -6.6981   35.0539 C   0  0  0  0  0  0  0  0  0  0  0  0
   -1.3910   -7.5382   34.3116 C   0  0  0  0  0  0  0  0  0  0  0  0
   -1.1791   -7.6111   32.9091 C   0  0  0  0  0  0  0  0  0  0  0  0
   -1.7166   -8.3610   31.9719 N   0  0  0  0  0  0  0  0  0  0  0  0
   -1.1018   -8.0633   30.7860 N   0  0  0  0  0  0  0  0  0  0  0  0
   -0.2062   -7.1332   31.0280 C   0  0  0  0  0  0  0  0  0  0  0  0
   -0.2222   -6.7736   32.3494 N   0  0  0  0  0  0  0  0  0  0  0  0
    0.7407    0.1959   27.5338 H   0  0  0  0  0  0  0  0  0  0  0  0
    2.6889   -0.8631   28.6789 H   0  0  0  0  0  0  0  0  0  0  0  0
   -1.8618   -2.9307   28.8578 H   0  0  0  0  0  0  0  0  0  0  0  0
    3.3078   -1.4521   30.9257 H   0  0  0  0  0  0  0  0  0  0  0  0
    3.9146   -3.0220   31.5080 H   0  0  0  0  0  0  0  0  0  0  0  0
    3.1165    0.9315   32.2896 H   0  0  0  0  0  0  0  0  0  0  0  0
    2.4431    2.7772   30.7560 H   0  0  0  0  0  0  0  0  0  0  0  0
    0.1191    2.7897   29.8395 H   0  0  0  0  0  0  0  0  0  0  0  0
   -0.8714   -0.6493   31.8753 H   0  0  0  0  0  0  0  0  0  0  0  0
    2.9935   -5.5010   32.4741 H   0  0  0  0  0  0  0  0  0  0  0  0
    0.9296   -5.2298   35.1227 H   0  0  0  0  0  0  0  0  0  0  0  0
   -0.7969   -6.6255   36.1283 H   0  0  0  0  0  0  0  0  0  0  0  0
   -2.1406   -8.1781   34.7592 H   0  0  0  0  0  0  0  0  0  0  0  0
    0.4581   -6.7093   30.2930 H   0  0  0  0  0  0  0  0  0  0  0  0
  1  2  1  0
  2  3  2  0
  3  4  1  0
  4  5  2  0
  5  6  1  0
  6  7  2  0
  6  8  1  0
  8  9  2  0
  9 10  1  0
 10 11  1  0
 11 12  1  0
 12 13  1  0
 13 14  1  0
 14 15  2  0
 15 16  1  0
 16 17  2  0
 17 18  1  0
 18 19  2  0
 13 20  2  0
 20 21  1  0
 21 22  2  0
 22 23  1  0
 23 24  1  0
 24 25  2  0
 25 26  1  0
 26 27  2  0
 27 28  1  0
 28 29  2  0
 29 30  1  0
 30 31  2  0
 31 32  1  0
  7  2  1  0
 23  9  1  0
 32 24  1  0
 10  5  1  0
 22 12  1  0
 32 28  1  0
 19 14  1  0
  3 33  1  0
  4 34  1  0
  7 35  1  0
 11 36  1  0
 11 37  1  0
 15 38  1  0
 16 39  1  0
 17 40  1  0
 19 41  1  0
 23 42  1  0
 25 43  1  0
 26 44  1  0
 27 45  1  0
 31 46  1  0
M  END
>  <Energy>  (34) 
77.402716753541313

>  <compound_id>  (34) 
2350

>  <target_id>  (34) 
1

>  <reference_id>  (34) 
180

>  <inspiration_ids>  (34) 
[163, 180]

>  <energy_score>  (34) 
-170.48650420917429

>  <distance_score>  (34) 
0.952782974057849

>  <path>  (34) 
/opt/xchem-fragalysis-2/maxwin/BulkDock/SCRATCH/505736/C2350-P180/C2350-P180.minimised.mol

>  <scratch_subdir>  (34) 
/opt/xchem-fragalysis-2/maxwin/BulkDock/SCRATCH/505736/C2350-P180

>  <fragmenstein_runtime>  (34) 
1.8626742362976074

>  <fragmenstein_outcome>  (34) 
acceptable

>  <fragmenstein_mode>  (34) 
expansion

>  <fragmenstein_error>  (34) 


$$$$
C2352-P163
     RDKit          3D

 37 38  0  0  0  0  0  0  0  0999 V2000
    1.4054   -3.2800   30.1259 N   0  0  0  0  0  0  0  0  0  0  0  0
    0.8547   -4.3838   30.8975 N   0  0  0  0  0  0  0  0  0  0  0  0
    0.5492   -4.0350   32.3175 C   0  0  0  0  0  0  0  0  0  0  0  0
    1.6561   -3.2806   32.9032 N   0  0  0  0  0  0  0  0  0  0  0  0
    3.1729   -3.9030   32.9334 S   0  0  0  0  0  0  0  0  0  0  0  0
    4.2641   -2.7584   32.6954 O   0  0  0  0  0  0  0  0  0  0  0  0
    3.3125   -4.8850   31.6733 O   0  0  0  0  0  0  0  0  0  0  0  0
    3.7842   -4.7905   34.3169 C   0  0  0  0  0  0  0  0  0  0  0  0
    2.7402   -5.4871   35.1708 C   0  0  0  0  0  0  0  0  0  0  0  0
    2.3425   -6.8597   34.6527 C   0  0  0  0  0  0  0  0  0  0  0  0
    1.9198   -6.8764   33.2686 N   0  0  0  0  0  0  0  0  0  0  0  0
    0.5648   -6.6491   33.1961 N   0  0  0  0  0  0  0  0  0  0  0  0
   -0.0391   -7.3472   32.0932 C   0  0  0  0  0  0  0  0  0  0  0  0
   -1.3750   -6.7035   32.0507 C   0  0  0  0  0  0  0  0  0  0  0  0
   -1.3173   -5.6046   33.0917 C   0  0  0  0  0  0  0  0  0  0  0  0
    0.1284   -5.2467   33.2758 C   0  0  0  0  0  0  0  0  0  0  0  0
    1.4423   -3.4941   29.1225 H   0  0  0  0  0  0  0  0  0  0  0  0
    0.8152   -2.4396   30.1789 H   0  0  0  0  0  0  0  0  0  0  0  0
   -0.0140   -4.7410   30.4850 H   0  0  0  0  0  0  0  0  0  0  0  0
   -0.2987   -3.3379   32.2945 H   0  0  0  0  0  0  0  0  0  0  0  0
    1.7032   -2.3985   32.3998 H   0  0  0  0  0  0  0  0  0  0  0  0
    4.9658   -3.0131   32.0528 H   0  0  0  0  0  0  0  0  0  0  0  0
    2.6039   -4.6424   30.9971 H   0  0  0  0  0  0  0  0  0  0  0  0
    4.5500   -5.4875   33.9624 H   0  0  0  0  0  0  0  0  0  0  0  0
    4.2954   -4.0440   34.9365 H   0  0  0  0  0  0  0  0  0  0  0  0
    1.8863   -4.8346   35.3554 H   0  0  0  0  0  0  0  0  0  0  0  0
    3.1862   -5.6494   36.1618 H   0  0  0  0  0  0  0  0  0  0  0  0
    3.2211   -7.5107   34.7398 H   0  0  0  0  0  0  0  0  0  0  0  0
    1.5952   -7.3110   35.3200 H   0  0  0  0  0  0  0  0  0  0  0  0
    2.4789   -6.2488   32.6765 H   0  0  0  0  0  0  0  0  0  0  0  0
   -0.1745   -8.4070   32.2950 H   0  0  0  0  0  0  0  0  0  0  0  0
    0.4911   -7.2255   31.1415 H   0  0  0  0  0  0  0  0  0  0  0  0
   -2.1607   -7.4362   32.2387 H   0  0  0  0  0  0  0  0  0  0  0  0
   -1.5009   -6.2898   31.0585 H   0  0  0  0  0  0  0  0  0  0  0  0
   -1.8651   -4.7117   32.8080 H   0  0  0  0  0  0  0  0  0  0  0  0
   -1.6978   -6.0104   34.0367 H   0  0  0  0  0  0  0  0  0  0  0  0
    0.1996   -4.8770   34.3034 H   0  0  0  0  0  0  0  0  0  0  0  0
  1  2  1  0
  2  3  1  0
  3  4  1  0
  4  5  1  0
  5  6  1  0
  5  7  1  0
  5  8  1  0
  8  9  1  0
  9 10  1  0
 10 11  1  0
 11 12  1  0
 12 13  1  0
 13 14  1  0
 14 15  1  0
 15 16  1  0
 16  3  1  0
 16 12  1  0
  1 17  1  0
  1 18  1  0
  2 19  1  0
  3 20  1  0
  4 21  1  0
  6 22  1  0
  7 23  1  0
  8 24  1  0
  8 25  1  0
  9 26  1  0
  9 27  1  0
 10 28  1  0
 10 29  1  0
 11 30  1  0
 13 31  1  0
 13 32  1  0
 14 33  1  0
 14 34  1  0
 15 35  1  0
 15 36  1  0
 16 37  1  0
M  END
>  <Energy>  (35) 
40.935673046643188

>  <compound_id>  (35) 
2352

>  <target_id>  (35) 
1

>  <reference_id>  (35) 
163

>  <inspiration_ids>  (35) 
[163, 186]

>  <energy_score>  (35) 
-118.64313314562445

>  <distance_score>  (35) 
2.883443210857335

>  <path>  (35) 
/opt/xchem-fragalysis-2/maxwin/BulkDock/SCRATCH/505736/C2352-P163/C2352-P163.minimised.mol

>  <scratch_subdir>  (35) 
/opt/xchem-fragalysis-2/maxwin/BulkDock/SCRATCH/505736/C2352-P163

>  <fragmenstein_runtime>  (35) 
1.7945384979248047

>  <fragmenstein_outcome>  (35) 
too moved

>  <fragmenstein_mode>  (35) 
expansion

>  <fragmenstein_error>  (35) 


$$$$
C2352-P186
     RDKit          3D

 37 38  0  0  0  0  0  0  0  0999 V2000
    2.8098   -3.2020   30.3036 N   0  0  0  0  0  0  0  0  0  0  0  0
    1.9255   -4.2879   30.7087 N   0  0  0  0  0  0  0  0  0  0  0  0
    1.0527   -3.8892   31.8419 C   0  0  0  0  0  0  0  0  0  0  0  0
    1.8791   -3.4064   32.9306 N   0  0  0  0  0  0  0  0  0  0  0  0
    2.5866   -4.4296   33.9957 S   0  0  0  0  0  0  0  0  0  0  0  0
    3.9445   -3.8384   34.5955 O   0  0  0  0  0  0  0  0  0  0  0  0
    2.9681   -5.8091   33.2836 O   0  0  0  0  0  0  0  0  0  0  0  0
    1.5934   -4.8283   35.3980 C   0  0  0  0  0  0  0  0  0  0  0  0
    1.5164   -6.2815   35.8179 C   0  0  0  0  0  0  0  0  0  0  0  0
    0.8349   -7.2882   34.9022 C   0  0  0  0  0  0  0  0  0  0  0  0
   -0.1552   -6.7387   33.9980 N   0  0  0  0  0  0  0  0  0  0  0  0
    0.5025   -6.3978   32.7412 N   0  0  0  0  0  0  0  0  0  0  0  0
    0.0486   -7.3582   31.7368 C   0  0  0  0  0  0  0  0  0  0  0  0
   -1.2709   -6.8132   31.3448 C   0  0  0  0  0  0  0  0  0  0  0  0
   -0.9533   -5.3320   31.2381 C   0  0  0  0  0  0  0  0  0  0  0  0
    0.0280   -5.0194   32.3315 C   0  0  0  0  0  0  0  0  0  0  0  0
    3.6220   -3.1779   30.9319 H   0  0  0  0  0  0  0  0  0  0  0  0
    3.2202   -3.3872   29.3836 H   0  0  0  0  0  0  0  0  0  0  0  0
    1.3118   -4.5308   29.9274 H   0  0  0  0  0  0  0  0  0  0  0  0
    0.4378   -3.0447   31.5017 H   0  0  0  0  0  0  0  0  0  0  0  0
    2.5321   -2.7350   32.5441 H   0  0  0  0  0  0  0  0  0  0  0  0
    4.6981   -4.4680   34.5253 H   0  0  0  0  0  0  0  0  0  0  0  0
    2.1556   -6.2196   32.8817 H   0  0  0  0  0  0  0  0  0  0  0  0
    2.0137   -4.2483   36.2286 H   0  0  0  0  0  0  0  0  0  0  0  0
    0.5942   -4.4173   35.2250 H   0  0  0  0  0  0  0  0  0  0  0  0
    0.9795   -6.2986   36.7766 H   0  0  0  0  0  0  0  0  0  0  0  0
    2.5278   -6.6450   36.0406 H   0  0  0  0  0  0  0  0  0  0  0  0
    0.3269   -8.0148   35.5484 H   0  0  0  0  0  0  0  0  0  0  0  0
    1.5977   -7.8683   34.3806 H   0  0  0  0  0  0  0  0  0  0  0  0
   -0.9229   -7.4099   33.9033 H   0  0  0  0  0  0  0  0  0  0  0  0
   -0.0534   -8.3785   32.1034 H   0  0  0  0  0  0  0  0  0  0  0  0
    0.7285   -7.3563   30.8810 H   0  0  0  0  0  0  0  0  0  0  0  0
   -2.0126   -7.0388   32.1089 H   0  0  0  0  0  0  0  0  0  0  0  0
   -1.5841   -7.2692   30.4053 H   0  0  0  0  0  0  0  0  0  0  0  0
   -0.5279   -5.1586   30.2439 H   0  0  0  0  0  0  0  0  0  0  0  0
   -1.7967   -4.6518   31.3195 H   0  0  0  0  0  0  0  0  0  0  0  0
   -0.5347   -4.5676   33.1626 H   0  0  0  0  0  0  0  0  0  0  0  0
  1  2  1  0
  2  3  1  0
  3  4  1  0
  4  5  1  0
  5  6  1  0
  5  7  1  0
  5  8  1  0
  8  9  1  0
  9 10  1  0
 10 11  1  0
 11 12  1  0
 12 13  1  0
 13 14  1  0
 14 15  1  0
 15 16  1  0
 16  3  1  0
 16 12  1  0
  1 17  1  0
  1 18  1  0
  2 19  1  0
  3 20  1  0
  4 21  1  0
  6 22  1  0
  7 23  1  0
  8 24  1  0
  8 25  1  0
  9 26  1  0
  9 27  1  0
 10 28  1  0
 10 29  1  0
 11 30  1  0
 13 31  1  0
 13 32  1  0
 14 33  1  0
 14 34  1  0
 15 35  1  0
 15 36  1  0
 16 37  1  0
M  END
>  <Energy>  (36) 
38.055595484607309

>  <compound_id>  (36) 
2352

>  <target_id>  (36) 
1

>  <reference_id>  (36) 
186

>  <inspiration_ids>  (36) 
[163, 186]

>  <energy_score>  (36) 
-121.52321070766021

>  <distance_score>  (36) 
2.8916738345121393

>  <path>  (36) 
/opt/xchem-fragalysis-2/maxwin/BulkDock/SCRATCH/505736/C2352-P186/C2352-P186.minimised.mol

>  <scratch_subdir>  (36) 
/opt/xchem-fragalysis-2/maxwin/BulkDock/SCRATCH/505736/C2352-P186

>  <fragmenstein_runtime>  (36) 
1.7531673908233643

>  <fragmenstein_outcome>  (36) 
too moved

>  <fragmenstein_mode>  (36) 
expansion

>  <fragmenstein_error>  (36) 


$$$$
C2353-P163
     RDKit          3D

 70 76  0  0  0  0  0  0  0  0999 V2000
   -1.1836   -2.1120   27.7396 O   0  0  0  0  0  0  0  0  0  0  0  0
    0.0159   -2.0790   28.7861 S   0  0  0  0  0  0  0  0  0  0  0  0
    1.1399   -1.1575   28.1139 O   0  0  0  0  0  0  0  0  0  0  0  0
    0.4838   -3.6671   29.0090 N   0  0  0  0  0  0  0  0  0  0  0  0
    1.4393   -4.0582   29.9356 C   0  0  0  0  0  0  0  0  0  0  0  0
    2.4617   -3.2225   30.2009 C   0  0  0  0  0  0  0  0  0  0  0  0
    3.2538   -3.0517   31.4541 C   0  0  0  0  0  0  0  0  0  0  0  0
    2.4776   -2.5464   32.5912 N   0  0  0  0  0  0  0  0  0  0  0  0
    2.2009   -3.4240   33.7173 C   0  0  0  0  0  0  0  0  0  0  0  0
    0.8291   -3.1184   34.1455 N   0  0  0  0  0  0  0  0  0  0  0  0
    0.5478   -1.7777   33.5804 N   0  0  0  0  0  0  0  0  0  0  0  0
    1.2308   -1.8513   32.2874 C   0  0  0  0  0  0  0  0  0  0  0  0
    1.4093   -0.5237   31.5226 C   0  0  0  0  0  0  0  0  0  0  0  0
    1.9405    0.6494   32.3798 C   0  0  0  0  0  0  0  0  0  0  0  0
    2.1802    1.9026   31.5248 C   0  0  0  0  0  0  0  0  0  0  0  0
    0.9972    2.2474   30.6162 C   0  0  0  0  0  0  0  0  0  0  0  0
    0.6076    1.0432   29.8963 N   0  0  0  0  0  0  0  0  0  0  0  0
   -0.0331    1.2483   28.6507 N   0  0  0  0  0  0  0  0  0  0  0  0
   -1.4521    0.9503   28.6211 C   0  0  0  0  0  0  0  0  0  0  0  0
   -1.8715   -0.2379   29.4786 C   0  0  0  0  0  0  0  0  0  0  0  0
   -0.7236   -1.0809   30.0403 C   0  0  0  0  0  0  0  0  0  0  0  0
    0.1467   -0.0547   30.7752 C   0  0  0  0  0  0  0  0  0  0  0  0
    2.6811   -5.1541   33.5543 S   0  0  0  0  0  0  0  0  0  0  0  0
    1.1671   -6.1111   33.7256 C   0  0  0  0  0  0  0  0  0  0  0  0
    0.8638   -6.0934   35.2574 C   0  0  0  0  0  0  0  0  0  0  0  0
   -0.5783   -6.4263   35.6128 C   0  0  0  0  0  0  0  0  0  0  0  0
   -1.1233   -7.3437   34.5510 C   0  0  0  0  0  0  0  0  0  0  0  0
   -1.0981   -6.6337   33.1991 C   0  0  0  0  0  0  0  0  0  0  0  0
   -1.2065   -7.6321   32.1390 N   0  0  0  0  0  0  0  0  0  0  0  0
   -0.3213   -7.2106   31.1007 N   0  0  0  0  0  0  0  0  0  0  0  0
    0.0947   -5.8315   31.4143 C   0  0  0  0  0  0  0  0  0  0  0  0
    1.3295   -5.4598   30.5424 C   0  0  0  0  0  0  0  0  0  0  0  0
    0.0332   -5.7417   32.8861 N   0  0  0  0  0  0  0  0  0  0  0  0
   -1.0114   -1.6211   26.8933 H   0  0  0  0  0  0  0  0  0  0  0  0
    1.0207   -0.1824   28.3265 H   0  0  0  0  0  0  0  0  0  0  0  0
   -0.2020   -4.3606   28.7252 H   0  0  0  0  0  0  0  0  0  0  0  0
    2.5960   -2.3723   29.5341 H   0  0  0  0  0  0  0  0  0  0  0  0
    3.9931   -2.2662   31.2405 H   0  0  0  0  0  0  0  0  0  0  0  0
    3.8920   -3.9182   31.6444 H   0  0  0  0  0  0  0  0  0  0  0  0
    2.8469   -3.0641   34.5270 H   0  0  0  0  0  0  0  0  0  0  0  0
    0.2294   -3.8080   33.6756 H   0  0  0  0  0  0  0  0  0  0  0  0
    1.0401   -1.0825   34.1470 H   0  0  0  0  0  0  0  0  0  0  0  0
    0.5873   -2.5078   31.7029 H   0  0  0  0  0  0  0  0  0  0  0  0
    2.1789   -0.6809   30.7586 H   0  0  0  0  0  0  0  0  0  0  0  0
    2.8757    0.3671   32.8767 H   0  0  0  0  0  0  0  0  0  0  0  0
    1.2186    0.9014   33.1661 H   0  0  0  0  0  0  0  0  0  0  0  0
    2.4068    2.7541   32.1765 H   0  0  0  0  0  0  0  0  0  0  0  0
    3.0706    1.7358   30.9041 H   0  0  0  0  0  0  0  0  0  0  0  0
    1.3154    3.0420   29.9304 H   0  0  0  0  0  0  0  0  0  0  0  0
    0.1650    2.6426   31.2079 H   0  0  0  0  0  0  0  0  0  0  0  0
    0.1340    2.1737   28.2399 H   0  0  0  0  0  0  0  0  0  0  0  0
   -2.0320    1.8337   28.8958 H   0  0  0  0  0  0  0  0  0  0  0  0
   -1.7210    0.7460   27.5773 H   0  0  0  0  0  0  0  0  0  0  0  0
   -2.5253   -0.8594   28.8813 H   0  0  0  0  0  0  0  0  0  0  0  0
   -2.4664    0.1350   30.3224 H   0  0  0  0  0  0  0  0  0  0  0  0
   -1.1607   -1.7924   30.7501 H   0  0  0  0  0  0  0  0  0  0  0  0
   -0.5202    0.3840   31.5354 H   0  0  0  0  0  0  0  0  0  0  0  0
    1.4571   -7.1363   33.4769 H   0  0  0  0  0  0  0  0  0  0  0  0
    1.1046   -5.1443   35.7494 H   0  0  0  0  0  0  0  0  0  0  0  0
    1.5114   -6.8444   35.7337 H   0  0  0  0  0  0  0  0  0  0  0  0
   -0.6234   -6.8961   36.6008 H   0  0  0  0  0  0  0  0  0  0  0  0
   -1.1743   -5.5079   35.6654 H   0  0  0  0  0  0  0  0  0  0  0  0
   -2.1384   -7.6670   34.8013 H   0  0  0  0  0  0  0  0  0  0  0  0
   -0.4965   -8.2379   34.5311 H   0  0  0  0  0  0  0  0  0  0  0  0
   -1.9556   -5.9763   33.1517 H   0  0  0  0  0  0  0  0  0  0  0  0
   -2.1849   -7.7246   31.8646 H   0  0  0  0  0  0  0  0  0  0  0  0
   -0.7120   -7.2542   30.1592 H   0  0  0  0  0  0  0  0  0  0  0  0
   -0.7172   -5.1783   31.0637 H   0  0  0  0  0  0  0  0  0  0  0  0
    1.3201   -6.1195   29.6605 H   0  0  0  0  0  0  0  0  0  0  0  0
    2.2612   -5.7451   31.0283 H   0  0  0  0  0  0  0  0  0  0  0  0
  1  2  1  0
  2  3  1  0
  2  4  1  0
  4  5  1  0
  5  6  2  3
  6  7  1  0
  7  8  1  0
  8  9  1  0
  9 10  1  0
 10 11  1  0
 11 12  1  0
 12 13  1  0
 13 14  1  0
 14 15  1  0
 15 16  1  0
 16 17  1  0
 17 18  1  0
 18 19  1  0
 19 20  1  0
 20 21  1  0
 21 22  1  0
  9 23  1  0
 23 24  1  0
 24 25  1  0
 25 26  1  0
 26 27  1  0
 27 28  1  0
 28 29  1  0
 29 30  1  0
 30 31  1  0
 31 32  1  0
 31 33  1  0
 21  2  1  0
 33 24  1  0
 32  5  1  0
 12  8  1  0
 22 13  1  0
 33 28  1  0
 22 17  1  0
  1 34  1  0
  3 35  1  0
  4 36  1  0
  6 37  1  0
  7 38  1  0
  7 39  1  0
  9 40  1  0
 10 41  1  0
 11 42  1  0
 12 43  1  0
 13 44  1  0
 14 45  1  0
 14 46  1  0
 15 47  1  0
 15 48  1  0
 16 49  1  0
 16 50  1  0
 18 51  1  0
 19 52  1  0
 19 53  1  0
 20 54  1  0
 20 55  1  0
 21 56  1  0
 22 57  1  0
 24 58  1  0
 25 59  1  0
 25 60  1  0
 26 61  1  0
 26 62  1  0
 27 63  1  0
 27 64  1  0
 28 65  1  0
 29 66  1  0
 30 67  1  0
 31 68  1  0
 32 69  1  0
 32 70  1  0
M  END
>  <Energy>  (37) 
16.117893331623513

>  <compound_id>  (37) 
2353

>  <target_id>  (37) 
1

>  <reference_id>  (37) 
163

>  <inspiration_ids>  (37) 
[163, 187]

>  <energy_score>  (37) 
-239.91571767562175

>  <distance_score>  (37) 
1.2578475708269947

>  <path>  (37) 
/opt/xchem-fragalysis-2/maxwin/BulkDock/SCRATCH/505736/C2353-P163/C2353-P163.minimised.mol

>  <scratch_subdir>  (37) 
/opt/xchem-fragalysis-2/maxwin/BulkDock/SCRATCH/505736/C2353-P163

>  <fragmenstein_runtime>  (37) 
4.319897174835205

>  <fragmenstein_outcome>  (37) 
too moved

>  <fragmenstein_mode>  (37) 
expansion

>  <fragmenstein_error>  (37) 


$$$$
C2353-P187
     RDKit          3D

 70 76  0  0  0  0  0  0  0  0999 V2000
   -1.2991   -2.5101   27.8893 O   0  0  0  0  0  0  0  0  0  0  0  0
   -0.1829   -2.3773   29.0076 S   0  0  0  0  0  0  0  0  0  0  0  0
    0.9585   -1.5712   28.2325 O   0  0  0  0  0  0  0  0  0  0  0  0
    0.2330   -3.9449   29.3879 N   0  0  0  0  0  0  0  0  0  0  0  0
    1.3607   -4.2950   30.1195 C   0  0  0  0  0  0  0  0  0  0  0  0
    2.3916   -3.4398   30.2514 C   0  0  0  0  0  0  0  0  0  0  0  0
    3.2110   -3.1798   31.4726 C   0  0  0  0  0  0  0  0  0  0  0  0
    2.4486   -2.5705   32.5617 N   0  0  0  0  0  0  0  0  0  0  0  0
    2.1895   -3.3118   33.7861 C   0  0  0  0  0  0  0  0  0  0  0  0
    0.8421   -2.9241   34.2022 N   0  0  0  0  0  0  0  0  0  0  0  0
    0.6070   -1.6378   33.5506 N   0  0  0  0  0  0  0  0  0  0  0  0
    1.2169   -1.8655   32.2354 C   0  0  0  0  0  0  0  0  0  0  0  0
    1.3234   -0.6069   31.3561 C   0  0  0  0  0  0  0  0  0  0  0  0
    2.1123    0.5311   32.0252 C   0  0  0  0  0  0  0  0  0  0  0  0
    2.1600    1.7434   31.1057 C   0  0  0  0  0  0  0  0  0  0  0  0
    0.7481    2.2156   30.8087 C   0  0  0  0  0  0  0  0  0  0  0  0
   -0.1132    1.1780   30.2589 N   0  0  0  0  0  0  0  0  0  0  0  0
    0.0246    1.0776   28.8384 N   0  0  0  0  0  0  0  0  0  0  0  0
   -1.2795    0.6496   28.3244 C   0  0  0  0  0  0  0  0  0  0  0  0
   -1.9588   -0.3453   29.2763 C   0  0  0  0  0  0  0  0  0  0  0  0
   -0.9555   -1.1922   30.0840 C   0  0  0  0  0  0  0  0  0  0  0  0
   -0.0841   -0.1608   30.9032 C   0  0  0  0  0  0  0  0  0  0  0  0
    2.5993   -5.0586   33.8282 S   0  0  0  0  0  0  0  0  0  0  0  0
    1.0909   -5.9819   34.1562 C   0  0  0  0  0  0  0  0  0  0  0  0
    0.2408   -5.5672   35.3706 C   0  0  0  0  0  0  0  0  0  0  0  0
   -0.6241   -6.7234   35.8691 C   0  0  0  0  0  0  0  0  0  0  0  0
   -1.0717   -7.6437   34.7357 C   0  0  0  0  0  0  0  0  0  0  0  0
   -0.9900   -6.9476   33.3877 C   0  0  0  0  0  0  0  0  0  0  0  0
   -1.4127   -7.7021   32.2081 N   0  0  0  0  0  0  0  0  0  0  0  0
   -0.6032   -7.1212   31.1189 N   0  0  0  0  0  0  0  0  0  0  0  0
    0.1637   -5.9917   31.7189 C   0  0  0  0  0  0  0  0  0  0  0  0
    1.3521   -5.6756   30.7809 C   0  0  0  0  0  0  0  0  0  0  0  0
    0.3690   -6.5583   33.0361 N   0  0  0  0  0  0  0  0  0  0  0  0
   -2.0527   -3.1509   27.9821 H   0  0  0  0  0  0  0  0  0  0  0  0
    0.6674   -1.3680   27.3077 H   0  0  0  0  0  0  0  0  0  0  0  0
   -0.0146   -4.6512   28.6959 H   0  0  0  0  0  0  0  0  0  0  0  0
    2.4622   -2.6062   29.5607 H   0  0  0  0  0  0  0  0  0  0  0  0
    3.9644   -2.4332   31.1843 H   0  0  0  0  0  0  0  0  0  0  0  0
    3.8213   -4.0462   31.7397 H   0  0  0  0  0  0  0  0  0  0  0  0
    2.8683   -2.8803   34.5317 H   0  0  0  0  0  0  0  0  0  0  0  0
    0.2101   -3.5882   33.7575 H   0  0  0  0  0  0  0  0  0  0  0  0
    1.1538   -0.9157   34.0270 H   0  0  0  0  0  0  0  0  0  0  0  0
    0.5204   -2.5536   31.7528 H   0  0  0  0  0  0  0  0  0  0  0  0
    1.8899   -0.8372   30.4525 H   0  0  0  0  0  0  0  0  0  0  0  0
    3.1347    0.2044   32.2467 H   0  0  0  0  0  0  0  0  0  0  0  0
    1.6539    0.8283   32.9751 H   0  0  0  0  0  0  0  0  0  0  0  0
    2.7240    2.5489   31.5896 H   0  0  0  0  0  0  0  0  0  0  0  0
    2.6871    1.4950   30.1766 H   0  0  0  0  0  0  0  0  0  0  0  0
    0.7753    3.0961   30.1538 H   0  0  0  0  0  0  0  0  0  0  0  0
    0.2952    2.5668   31.7449 H   0  0  0  0  0  0  0  0  0  0  0  0
    0.7280    0.3700   28.5869 H   0  0  0  0  0  0  0  0  0  0  0  0
   -1.1425    0.2040   27.3338 H   0  0  0  0  0  0  0  0  0  0  0  0
   -1.9294    1.5209   28.1798 H   0  0  0  0  0  0  0  0  0  0  0  0
   -2.6334   -0.9638   28.6931 H   0  0  0  0  0  0  0  0  0  0  0  0
   -2.5754    0.2060   29.9969 H   0  0  0  0  0  0  0  0  0  0  0  0
   -1.5222   -1.8064   30.7960 H   0  0  0  0  0  0  0  0  0  0  0  0
   -0.6627    0.0103   31.8237 H   0  0  0  0  0  0  0  0  0  0  0  0
    1.5880   -6.8824   34.5476 H   0  0  0  0  0  0  0  0  0  0  0  0
   -0.4574   -4.7645   35.1231 H   0  0  0  0  0  0  0  0  0  0  0  0
    0.8664   -5.2102   36.1974 H   0  0  0  0  0  0  0  0  0  0  0  0
   -0.0803   -7.3101   36.6191 H   0  0  0  0  0  0  0  0  0  0  0  0
   -1.4930   -6.2987   36.3781 H   0  0  0  0  0  0  0  0  0  0  0  0
   -2.0814   -8.0177   34.9319 H   0  0  0  0  0  0  0  0  0  0  0  0
   -0.3919   -8.4928   34.7437 H   0  0  0  0  0  0  0  0  0  0  0  0
   -1.6259   -6.0565   33.4523 H   0  0  0  0  0  0  0  0  0  0  0  0
   -1.1165   -8.6723   32.3665 H   0  0  0  0  0  0  0  0  0  0  0  0
   -1.1516   -6.7859   30.3370 H   0  0  0  0  0  0  0  0  0  0  0  0
   -0.4835   -5.1050   31.7867 H   0  0  0  0  0  0  0  0  0  0  0  0
    1.3612   -6.3904   29.9456 H   0  0  0  0  0  0  0  0  0  0  0  0
    2.3014   -5.8570   31.2822 H   0  0  0  0  0  0  0  0  0  0  0  0
  1  2  1  0
  2  3  1  0
  2  4  1  0
  4  5  1  0
  5  6  2  3
  6  7  1  0
  7  8  1  0
  8  9  1  0
  9 10  1  0
 10 11  1  0
 11 12  1  0
 12 13  1  0
 13 14  1  0
 14 15  1  0
 15 16  1  0
 16 17  1  0
 17 18  1  0
 18 19  1  0
 19 20  1  0
 20 21  1  0
 21 22  1  0
  9 23  1  0
 23 24  1  0
 24 25  1  0
 25 26  1  0
 26 27  1  0
 27 28  1  0
 28 29  1  0
 29 30  1  0
 30 31  1  0
 31 32  1  0
 31 33  1  0
 21  2  1  0
 33 24  1  0
 32  5  1  0
 12  8  1  0
 22 13  1  0
 33 28  1  0
 22 17  1  0
  1 34  1  0
  3 35  1  0
  4 36  1  0
  6 37  1  0
  7 38  1  0
  7 39  1  0
  9 40  1  0
 10 41  1  0
 11 42  1  0
 12 43  1  0
 13 44  1  0
 14 45  1  0
 14 46  1  0
 15 47  1  0
 15 48  1  0
 16 49  1  0
 16 50  1  0
 18 51  1  0
 19 52  1  0
 19 53  1  0
 20 54  1  0
 20 55  1  0
 21 56  1  0
 22 57  1  0
 24 58  1  0
 25 59  1  0
 25 60  1  0
 26 61  1  0
 26 62  1  0
 27 63  1  0
 27 64  1  0
 28 65  1  0
 29 66  1  0
 30 67  1  0
 31 68  1  0
 32 69  1  0
 32 70  1  0
M  END
>  <Energy>  (38) 
37.940482734947878

>  <compound_id>  (38) 
2353

>  <target_id>  (38) 
1

>  <reference_id>  (38) 
187

>  <inspiration_ids>  (38) 
[163, 187]

>  <energy_score>  (38) 
-218.09312827230136

>  <distance_score>  (38) 
1.1696420625373323

>  <path>  (38) 
/opt/xchem-fragalysis-2/maxwin/BulkDock/SCRATCH/505736/C2353-P187/C2353-P187.minimised.mol

>  <scratch_subdir>  (38) 
/opt/xchem-fragalysis-2/maxwin/BulkDock/SCRATCH/505736/C2353-P187

>  <fragmenstein_runtime>  (38) 
4.416417360305786

>  <fragmenstein_outcome>  (38) 
too moved

>  <fragmenstein_mode>  (38) 
expansion

>  <fragmenstein_error>  (38) 


$$$$
C2354-P163
     RDKit          3D

 66 69  0  0  0  0  0  0  0  0999 V2000
    0.9630    3.2980   32.3676 C   0  0  0  0  0  0  0  0  0  0  0  0
    2.0307    2.4102   31.7548 C   0  0  0  0  0  0  0  0  0  0  0  0
    2.1389    1.0362   32.4298 C   0  0  0  0  0  0  0  0  0  0  0  0
    0.9001    0.1248   32.3295 C   0  0  0  0  0  0  0  0  0  0  0  0
    0.3398    0.0331   30.9005 C   0  0  0  0  0  0  0  0  0  0  0  0
   -0.9312   -0.6640   30.7594 N   0  0  0  0  0  0  0  0  0  0  0  0
   -1.0113   -1.5700   29.5733 C   0  0  0  0  0  0  0  0  0  0  0  0
   -0.5961   -0.9921   28.2240 C   0  0  0  0  0  0  0  0  0  0  0  0
   -1.6180   -0.1059   27.5509 C   0  0  0  0  0  0  0  0  0  0  0  0
   -1.7791    1.3085   28.0713 C   0  0  0  0  0  0  0  0  0  0  0  0
   -0.5181    2.1387   27.9866 C   0  0  0  0  0  0  0  0  0  0  0  0
   -2.7394    1.9437   27.2275 O   0  0  0  0  0  0  0  0  0  0  0  0
   -0.2715   -3.2772   29.7558 S   0  0  0  0  0  0  0  0  0  0  0  0
   -0.0143   -3.5337   31.1477 O   0  0  0  0  0  0  0  0  0  0  0  0
   -1.0671   -4.2164   29.0202 O   0  0  0  0  0  0  0  0  0  0  0  0
    1.1557   -3.3328   28.9241 N   0  0  0  0  0  0  0  0  0  0  0  0
    2.3837   -2.6312   29.2212 C   0  0  0  0  0  0  0  0  0  0  0  0
    3.0746   -3.1989   30.4467 C   0  0  0  0  0  0  0  0  0  0  0  0
    3.0632   -2.2624   31.6607 C   0  0  0  0  0  0  0  0  0  0  0  0
    1.9419   -2.2834   32.5737 N   0  0  0  0  0  0  0  0  0  0  0  0
    1.5873   -3.3391   33.3929 C   0  0  0  0  0  0  0  0  0  0  0  0
    2.1960   -4.9599   33.2189 S   0  0  0  0  0  0  0  0  0  0  0  0
    0.7974   -5.8496   33.7392 C   0  0  0  0  0  0  0  0  0  0  0  0
    0.5184   -5.9597   35.0554 C   0  0  0  0  0  0  0  0  0  0  0  0
   -0.5915   -6.7834   35.4954 C   0  0  0  0  0  0  0  0  0  0  0  0
   -1.3368   -7.4738   34.6163 C   0  0  0  0  0  0  0  0  0  0  0  0
   -1.0482   -7.3958   33.2289 C   0  0  0  0  0  0  0  0  0  0  0  0
   -1.5693   -8.0013   32.1820 N   0  0  0  0  0  0  0  0  0  0  0  0
   -0.8964   -7.5681   31.0675 N   0  0  0  0  0  0  0  0  0  0  0  0
    0.0171   -6.7085   31.4656 C   0  0  0  0  0  0  0  0  0  0  0  0
   -0.0048   -6.5683   32.8311 N   0  0  0  0  0  0  0  0  0  0  0  0
    0.7165   -2.9325   34.2837 N   0  0  0  0  0  0  0  0  0  0  0  0
    0.4187   -1.6265   34.0141 N   0  0  0  0  0  0  0  0  0  0  0  0
    1.1157   -1.2346   32.9624 C   0  0  0  0  0  0  0  0  0  0  0  0
    0.9593    4.2784   31.8810 H   0  0  0  0  0  0  0  0  0  0  0  0
   -0.0280    2.8597   32.2477 H   0  0  0  0  0  0  0  0  0  0  0  0
    1.1445    3.4501   33.4362 H   0  0  0  0  0  0  0  0  0  0  0  0
    2.9971    2.9180   31.8673 H   0  0  0  0  0  0  0  0  0  0  0  0
    1.8729    2.3111   30.6763 H   0  0  0  0  0  0  0  0  0  0  0  0
    3.0219    0.5566   32.0053 H   0  0  0  0  0  0  0  0  0  0  0  0
    2.3781    1.1835   33.4921 H   0  0  0  0  0  0  0  0  0  0  0  0
    0.1182    0.6084   32.9345 H   0  0  0  0  0  0  0  0  0  0  0  0
    1.1152   -0.3855   30.2698 H   0  0  0  0  0  0  0  0  0  0  0  0
    0.1470    1.0434   30.5409 H   0  0  0  0  0  0  0  0  0  0  0  0
   -1.0974   -1.2549   31.5859 H   0  0  0  0  0  0  0  0  0  0  0  0
   -2.0684   -1.8330   29.5062 H   0  0  0  0  0  0  0  0  0  0  0  0
    0.3831   -0.5088   28.2515 H   0  0  0  0  0  0  0  0  0  0  0  0
   -0.4616   -1.8347   27.5516 H   0  0  0  0  0  0  0  0  0  0  0  0
   -1.3871   -0.0230   26.4891 H   0  0  0  0  0  0  0  0  0  0  0  0
   -2.5633   -0.6382   27.5783 H   0  0  0  0  0  0  0  0  0  0  0  0
   -2.1525    1.2960   29.0975 H   0  0  0  0  0  0  0  0  0  0  0  0
    0.3224    1.7139   28.5345 H   0  0  0  0  0  0  0  0  0  0  0  0
   -0.7024    3.1472   28.3739 H   0  0  0  0  0  0  0  0  0  0  0  0
   -0.2063    2.2658   26.9431 H   0  0  0  0  0  0  0  0  0  0  0  0
   -3.2147    2.6167   27.7590 H   0  0  0  0  0  0  0  0  0  0  0  0
    0.9739   -3.5464   27.9438 H   0  0  0  0  0  0  0  0  0  0  0  0
    3.0402   -2.8216   28.3606 H   0  0  0  0  0  0  0  0  0  0  0  0
    2.2652   -1.5519   29.2269 H   0  0  0  0  0  0  0  0  0  0  0  0
    2.7111   -4.2036   30.6680 H   0  0  0  0  0  0  0  0  0  0  0  0
    4.1334   -3.3246   30.1796 H   0  0  0  0  0  0  0  0  0  0  0  0
    3.9388   -2.4928   32.2829 H   0  0  0  0  0  0  0  0  0  0  0  0
    3.2173   -1.2460   31.3074 H   0  0  0  0  0  0  0  0  0  0  0  0
    1.0977   -5.4498   35.8205 H   0  0  0  0  0  0  0  0  0  0  0  0
   -0.7885   -6.8326   36.5618 H   0  0  0  0  0  0  0  0  0  0  0  0
   -2.1481   -8.1131   34.9370 H   0  0  0  0  0  0  0  0  0  0  0  0
    0.7024   -6.1755   30.8249 H   0  0  0  0  0  0  0  0  0  0  0  0
  1  2  1  0
  2  3  1  0
  3  4  1  0
  4  5  1  0
  5  6  1  0
  6  7  1  0
  7  8  1  0
  8  9  1  0
  9 10  1  0
 10 11  1  0
 10 12  1  0
  7 13  1  0
 13 14  2  0
 13 15  2  0
 13 16  1  0
 16 17  1  0
 17 18  1  0
 18 19  1  0
 19 20  1  0
 20 21  1  0
 21 22  1  0
 22 23  1  0
 23 24  2  0
 24 25  1  0
 25 26  2  0
 26 27  1  0
 27 28  2  0
 28 29  1  0
 29 30  2  0
 30 31  1  0
 21 32  2  0
 32 33  1  0
 33 34  2  0
 34  4  1  0
 34 20  1  0
 31 23  1  0
 31 27  1  0
  1 35  1  0
  1 36  1  0
  1 37  1  0
  2 38  1  0
  2 39  1  0
  3 40  1  0
  3 41  1  0
  4 42  1  0
  5 43  1  0
  5 44  1  0
  6 45  1  0
  7 46  1  0
  8 47  1  0
  8 48  1  0
  9 49  1  0
  9 50  1  0
 10 51  1  0
 11 52  1  0
 11 53  1  0
 11 54  1  0
 12 55  1  0
 16 56  1  0
 17 57  1  0
 17 58  1  0
 18 59  1  0
 18 60  1  0
 19 61  1  0
 19 62  1  0
 24 63  1  0
 25 64  1  0
 26 65  1  0
 30 66  1  0
M  END
>  <Energy>  (39) 
83.882888268308463

>  <compound_id>  (39) 
2354

>  <target_id>  (39) 
1

>  <reference_id>  (39) 
163

>  <inspiration_ids>  (39) 
[163, 188]

>  <energy_score>  (39) 
-52.4038112291575

>  <distance_score>  (39) 
1.4935554286883688

>  <path>  (39) 
/opt/xchem-fragalysis-2/maxwin/BulkDock/SCRATCH/505736/C2354-P163/C2354-P163.minimised.mol

>  <scratch_subdir>  (39) 
/opt/xchem-fragalysis-2/maxwin/BulkDock/SCRATCH/505736/C2354-P163

>  <fragmenstein_runtime>  (39) 
5.0871782302856445

>  <fragmenstein_outcome>  (39) 
too moved

>  <fragmenstein_mode>  (39) 
expansion

>  <fragmenstein_error>  (39) 


$$$$
C2354-P188
     RDKit          3D

 66 69  0  0  0  0  0  0  0  0999 V2000
    3.7599    3.1751   31.5120 C   0  0  0  0  0  0  0  0  0  0  0  0
    2.4720    2.3647   31.4563 C   0  0  0  0  0  0  0  0  0  0  0  0
    2.7276    0.8982   31.8361 C   0  0  0  0  0  0  0  0  0  0  0  0
    1.4322    0.0982   32.0153 C   0  0  0  0  0  0  0  0  0  0  0  0
    0.6454   -0.0173   30.6912 C   0  0  0  0  0  0  0  0  0  0  0  0
   -0.8017   -0.0577   30.8510 N   0  0  0  0  0  0  0  0  0  0  0  0
   -1.4679   -1.1545   30.0814 C   0  0  0  0  0  0  0  0  0  0  0  0
   -1.4827   -1.1557   28.5352 C   0  0  0  0  0  0  0  0  0  0  0  0
   -0.9762    0.0845   27.8127 C   0  0  0  0  0  0  0  0  0  0  0  0
   -1.7421    1.3629   28.0944 C   0  0  0  0  0  0  0  0  0  0  0  0
   -0.8345    2.5724   28.0982 C   0  0  0  0  0  0  0  0  0  0  0  0
   -2.7054    1.5528   27.0623 O   0  0  0  0  0  0  0  0  0  0  0  0
   -1.1791   -2.8832   30.7601 S   0  0  0  0  0  0  0  0  0  0  0  0
   -0.3285   -2.8010   31.9064 O   0  0  0  0  0  0  0  0  0  0  0  0
   -2.4525   -3.5043   30.9970 O   0  0  0  0  0  0  0  0  0  0  0  0
   -0.3190   -3.7652   29.6236 N   0  0  0  0  0  0  0  0  0  0  0  0
    0.9959   -3.3215   29.1073 C   0  0  0  0  0  0  0  0  0  0  0  0
    2.2079   -3.7002   29.9500 C   0  0  0  0  0  0  0  0  0  0  0  0
    2.8013   -2.6498   30.9137 C   0  0  0  0  0  0  0  0  0  0  0  0
    2.1815   -2.4200   32.2001 N   0  0  0  0  0  0  0  0  0  0  0  0
    1.9949   -3.3535   33.2045 C   0  0  0  0  0  0  0  0  0  0  0  0
    2.3238   -5.0480   33.0314 S   0  0  0  0  0  0  0  0  0  0  0  0
    0.8459   -5.7596   33.6166 C   0  0  0  0  0  0  0  0  0  0  0  0
    0.5706   -5.7746   34.9383 C   0  0  0  0  0  0  0  0  0  0  0  0
   -0.5475   -6.5578   35.4386 C   0  0  0  0  0  0  0  0  0  0  0  0
   -1.3091   -7.2978   34.6141 C   0  0  0  0  0  0  0  0  0  0  0  0
   -1.0559   -7.2838   33.2183 C   0  0  0  0  0  0  0  0  0  0  0  0
   -1.6214   -7.9116   32.2065 N   0  0  0  0  0  0  0  0  0  0  0  0
   -0.9615   -7.5515   31.0602 N   0  0  0  0  0  0  0  0  0  0  0  0
   -0.0058   -6.7189   31.4079 C   0  0  0  0  0  0  0  0  0  0  0  0
    0.0030   -6.5064   32.7638 N   0  0  0  0  0  0  0  0  0  0  0  0
    1.5718   -2.7533   34.2908 N   0  0  0  0  0  0  0  0  0  0  0  0
    1.3815   -1.4261   33.9897 N   0  0  0  0  0  0  0  0  0  0  0  0
    1.6888   -1.2233   32.7181 C   0  0  0  0  0  0  0  0  0  0  0  0
    3.5650    4.2154   31.2330 H   0  0  0  0  0  0  0  0  0  0  0  0
    4.1849    3.1691   32.5208 H   0  0  0  0  0  0  0  0  0  0  0  0
    4.5068    2.7715   30.8209 H   0  0  0  0  0  0  0  0  0  0  0  0
    2.0670    2.4495   30.4442 H   0  0  0  0  0  0  0  0  0  0  0  0
    1.7427    2.8104   32.1424 H   0  0  0  0  0  0  0  0  0  0  0  0
    3.3695    0.4341   31.0780 H   0  0  0  0  0  0  0  0  0  0  0  0
    3.2960    0.8733   32.7757 H   0  0  0  0  0  0  0  0  0  0  0  0
    0.8153    0.6863   32.7122 H   0  0  0  0  0  0  0  0  0  0  0  0
    1.0065   -0.8592   30.1209 H   0  0  0  0  0  0  0  0  0  0  0  0
    0.8447    0.8501   30.0642 H   0  0  0  0  0  0  0  0  0  0  0  0
   -1.0003   -0.2654   31.8387 H   0  0  0  0  0  0  0  0  0  0  0  0
   -2.5074   -0.9914   30.3767 H   0  0  0  0  0  0  0  0  0  0  0  0
   -0.9105   -1.9821   28.1252 H   0  0  0  0  0  0  0  0  0  0  0  0
   -2.4930   -1.3723   28.1868 H   0  0  0  0  0  0  0  0  0  0  0  0
    0.0902    0.2033   28.0281 H   0  0  0  0  0  0  0  0  0  0  0  0
   -1.0475   -0.1101   26.7453 H   0  0  0  0  0  0  0  0  0  0  0  0
   -2.2544    1.3044   29.0526 H   0  0  0  0  0  0  0  0  0  0  0  0
   -0.0924    2.5280   28.8983 H   0  0  0  0  0  0  0  0  0  0  0  0
   -1.4176    3.4913   28.2261 H   0  0  0  0  0  0  0  0  0  0  0  0
   -0.3089    2.6716   27.1415 H   0  0  0  0  0  0  0  0  0  0  0  0
   -3.3022    2.2651   27.3788 H   0  0  0  0  0  0  0  0  0  0  0  0
   -0.9543   -4.1250   28.8957 H   0  0  0  0  0  0  0  0  0  0  0  0
    1.1062   -3.8696   28.1627 H   0  0  0  0  0  0  0  0  0  0  0  0
    1.0196   -2.2801   28.7997 H   0  0  0  0  0  0  0  0  0  0  0  0
    2.0375   -4.6578   30.4310 H   0  0  0  0  0  0  0  0  0  0  0  0
    3.0162   -3.8961   29.2296 H   0  0  0  0  0  0  0  0  0  0  0  0
    3.8267   -2.9637   31.1553 H   0  0  0  0  0  0  0  0  0  0  0  0
    2.9193   -1.6965   30.3945 H   0  0  0  0  0  0  0  0  0  0  0  0
    1.1883   -5.2604   35.6699 H   0  0  0  0  0  0  0  0  0  0  0  0
   -0.7165   -6.5713   36.5113 H   0  0  0  0  0  0  0  0  0  0  0  0
   -2.0974   -7.9373   34.9902 H   0  0  0  0  0  0  0  0  0  0  0  0
    0.6885   -6.2580   30.7299 H   0  0  0  0  0  0  0  0  0  0  0  0
  1  2  1  0
  2  3  1  0
  3  4  1  0
  4  5  1  0
  5  6  1  0
  6  7  1  0
  7  8  1  0
  8  9  1  0
  9 10  1  0
 10 11  1  0
 10 12  1  0
  7 13  1  0
 13 14  2  0
 13 15  2  0
 13 16  1  0
 16 17  1  0
 17 18  1  0
 18 19  1  0
 19 20  1  0
 20 21  1  0
 21 22  1  0
 22 23  1  0
 23 24  2  0
 24 25  1  0
 25 26  2  0
 26 27  1  0
 27 28  2  0
 28 29  1  0
 29 30  2  0
 30 31  1  0
 21 32  2  0
 32 33  1  0
 33 34  2  0
 34  4  1  0
 34 20  1  0
 31 23  1  0
 31 27  1  0
  1 35  1  0
  1 36  1  0
  1 37  1  0
  2 38  1  0
  2 39  1  0
  3 40  1  0
  3 41  1  0
  4 42  1  0
  5 43  1  0
  5 44  1  0
  6 45  1  0
  7 46  1  0
  8 47  1  0
  8 48  1  0
  9 49  1  0
  9 50  1  0
 10 51  1  0
 11 52  1  0
 11 53  1  0
 11 54  1  0
 12 55  1  0
 16 56  1  0
 17 57  1  0
 17 58  1  0
 18 59  1  0
 18 60  1  0
 19 61  1  0
 19 62  1  0
 24 63  1  0
 25 64  1  0
 26 65  1  0
 30 66  1  0
M  END
>  <Energy>  (40) 
101.61724453639732

>  <compound_id>  (40) 
2354

>  <target_id>  (40) 
1

>  <reference_id>  (40) 
188

>  <inspiration_ids>  (40) 
[163, 188]

>  <energy_score>  (40) 
-34.669454961068595

>  <distance_score>  (40) 
1.4263228574052296

>  <path>  (40) 
/opt/xchem-fragalysis-2/maxwin/BulkDock/SCRATCH/505736/C2354-P188/C2354-P188.minimised.mol

>  <scratch_subdir>  (40) 
/opt/xchem-fragalysis-2/maxwin/BulkDock/SCRATCH/505736/C2354-P188

>  <fragmenstein_runtime>  (40) 
3.9406514167785645

>  <fragmenstein_outcome>  (40) 
too moved

>  <fragmenstein_mode>  (40) 
expansion

>  <fragmenstein_error>  (40) 


$$$$
C2355-P163
     RDKit          3D

 65 69  0  0  0  0  0  0  0  0999 V2000
   -2.1303    2.2499   27.3322 C   0  0  0  0  0  0  0  0  0  0  0  0
   -1.4700    0.8713   27.3601 C   0  0  0  0  0  0  0  0  0  0  0  0
   -2.0006    0.2535   26.2092 O   0  0  0  0  0  0  0  0  0  0  0  0
   -1.8343    0.0584   28.5945 C   0  0  0  0  0  0  0  0  0  0  0  0
   -0.7846   -0.8696   29.1714 C   0  0  0  0  0  0  0  0  0  0  0  0
   -1.0666   -1.1399   30.6804 C   0  0  0  0  0  0  0  0  0  0  0  0
   -0.3065   -0.2251   31.6618 C   0  0  0  0  0  0  0  0  0  0  0  0
    1.2501   -0.3035   31.6984 C   0  0  0  0  0  0  0  0  0  0  0  0
    1.8591    0.9955   32.2781 C   0  0  0  0  0  0  0  0  0  0  0  0
    2.2097    2.0941   31.2730 C   0  0  0  0  0  0  0  0  0  0  0  0
    1.0328    2.8668   30.7056 C   0  0  0  0  0  0  0  0  0  0  0  0
    0.4169    2.1419   29.6116 N   0  0  0  0  0  0  0  0  0  0  0  0
    1.6929   -1.4333   32.6008 C   0  0  0  0  0  0  0  0  0  0  0  0
    1.4384   -1.4968   33.8974 N   0  0  0  0  0  0  0  0  0  0  0  0
    1.7312   -2.7660   34.3387 N   0  0  0  0  0  0  0  0  0  0  0  0
    2.1742   -3.4450   33.3091 C   0  0  0  0  0  0  0  0  0  0  0  0
    2.3458   -2.5940   32.2363 N   0  0  0  0  0  0  0  0  0  0  0  0
    2.9851   -2.9212   30.9636 C   0  0  0  0  0  0  0  0  0  0  0  0
    2.4246   -4.1876   30.3514 C   0  0  0  0  0  0  0  0  0  0  0  0
    1.1084   -4.4637   30.3469 C   0  0  0  0  0  0  0  0  0  0  0  0
    0.5013   -5.8216   30.2582 C   0  0  0  0  0  0  0  0  0  0  0  0
   -0.1202   -6.5526   31.4040 C   0  0  0  0  0  0  0  0  0  0  0  0
   -1.0078   -7.5045   31.1442 N   0  0  0  0  0  0  0  0  0  0  0  0
   -1.5547   -7.9321   32.3053 N   0  0  0  0  0  0  0  0  0  0  0  0
   -0.9901   -7.2601   33.2790 C   0  0  0  0  0  0  0  0  0  0  0  0
   -1.2359   -7.3077   34.6733 C   0  0  0  0  0  0  0  0  0  0  0  0
   -0.4718   -6.5947   35.5108 C   0  0  0  0  0  0  0  0  0  0  0  0
    0.6614   -5.8455   35.0156 C   0  0  0  0  0  0  0  0  0  0  0  0
    0.9225   -5.7728   33.6899 C   0  0  0  0  0  0  0  0  0  0  0  0
    0.0347   -6.4316   32.7896 N   0  0  0  0  0  0  0  0  0  0  0  0
    2.4851   -5.1515   33.2435 S   0  0  0  0  0  0  0  0  0  0  0  0
    0.3446   -3.3080   30.0813 N   0  0  0  0  0  0  0  0  0  0  0  0
   -0.9419   -2.8830   31.0747 S   0  0  0  0  0  0  0  0  0  0  0  0
   -2.1424   -3.5067   30.6021 O   0  0  0  0  0  0  0  0  0  0  0  0
   -0.5640   -3.0967   32.4423 O   0  0  0  0  0  0  0  0  0  0  0  0
   -1.7485    2.8277   26.4823 H   0  0  0  0  0  0  0  0  0  0  0  0
   -3.2118    2.1659   27.1754 H   0  0  0  0  0  0  0  0  0  0  0  0
   -1.9650    2.8313   28.2375 H   0  0  0  0  0  0  0  0  0  0  0  0
   -0.3880    0.9728   27.2398 H   0  0  0  0  0  0  0  0  0  0  0  0
   -1.6985   -0.6778   26.1259 H   0  0  0  0  0  0  0  0  0  0  0  0
   -2.6315   -0.6297   28.3251 H   0  0  0  0  0  0  0  0  0  0  0  0
   -2.1607    0.7417   29.3852 H   0  0  0  0  0  0  0  0  0  0  0  0
   -0.8335   -1.7861   28.5713 H   0  0  0  0  0  0  0  0  0  0  0  0
    0.2193   -0.4634   29.0280 H   0  0  0  0  0  0  0  0  0  0  0  0
   -2.1328   -0.9457   30.8678 H   0  0  0  0  0  0  0  0  0  0  0  0
   -0.6219    0.7984   31.4467 H   0  0  0  0  0  0  0  0  0  0  0  0
   -0.6961   -0.4135   32.6724 H   0  0  0  0  0  0  0  0  0  0  0  0
    1.6428   -0.4482   30.6905 H   0  0  0  0  0  0  0  0  0  0  0  0
    1.2115    1.4036   33.0655 H   0  0  0  0  0  0  0  0  0  0  0  0
    2.8069    0.7502   32.7798 H   0  0  0  0  0  0  0  0  0  0  0  0
    2.8428    2.8190   31.8027 H   0  0  0  0  0  0  0  0  0  0  0  0
    2.8390    1.6860   30.4718 H   0  0  0  0  0  0  0  0  0  0  0  0
    0.2977    3.0837   31.4865 H   0  0  0  0  0  0  0  0  0  0  0  0
    1.3887    3.8305   30.3232 H   0  0  0  0  0  0  0  0  0  0  0  0
    1.1045    2.0414   28.8623 H   0  0  0  0  0  0  0  0  0  0  0  0
   -0.2823    2.7707   29.2126 H   0  0  0  0  0  0  0  0  0  0  0  0
    2.9212   -2.0780   30.2732 H   0  0  0  0  0  0  0  0  0  0  0  0
    4.0465   -3.0664   31.1986 H   0  0  0  0  0  0  0  0  0  0  0  0
    3.1346   -5.0099   30.2868 H   0  0  0  0  0  0  0  0  0  0  0  0
   -0.2980   -5.7294   29.5182 H   0  0  0  0  0  0  0  0  0  0  0  0
    1.2327   -6.5026   29.8075 H   0  0  0  0  0  0  0  0  0  0  0  0
   -2.0454   -7.9306   35.0287 H   0  0  0  0  0  0  0  0  0  0  0  0
   -0.6466   -6.6074   36.5824 H   0  0  0  0  0  0  0  0  0  0  0  0
    1.3168   -5.4045   35.7636 H   0  0  0  0  0  0  0  0  0  0  0  0
    0.8268   -2.5296   29.6409 H   0  0  0  0  0  0  0  0  0  0  0  0
  1  2  1  0
  2  3  1  0
  2  4  1  0
  4  5  1  0
  5  6  1  0
  6  7  1  0
  7  8  1  0
  8  9  1  0
  9 10  1  0
 10 11  1  0
 11 12  1  0
  8 13  1  0
 13 14  2  0
 14 15  1  0
 15 16  2  0
 16 17  1  0
 17 18  1  0
 18 19  1  0
 19 20  2  3
 20 21  1  0
 21 22  1  0
 22 23  2  0
 23 24  1  0
 24 25  2  0
 25 26  1  0
 26 27  2  0
 27 28  1  0
 28 29  2  0
 29 30  1  0
 29 31  1  0
 20 32  1  0
 32 33  1  0
 33 34  2  0
 33 35  2  0
 33  6  1  0
 17 13  1  0
 30 22  1  0
 31 16  1  0
 30 25  1  0
  1 36  1  0
  1 37  1  0
  1 38  1  0
  2 39  1  0
  3 40  1  0
  4 41  1  0
  4 42  1  0
  5 43  1  0
  5 44  1  0
  6 45  1  0
  7 46  1  0
  7 47  1  0
  8 48  1  0
  9 49  1  0
  9 50  1  0
 10 51  1  0
 10 52  1  0
 11 53  1  0
 11 54  1  0
 12 55  1  0
 12 56  1  0
 18 57  1  0
 18 58  1  0
 19 59  1  0
 21 60  1  0
 21 61  1  0
 26 62  1  0
 27 63  1  0
 28 64  1  0
 32 65  1  0
M  END
>  <Energy>  (41) 
76.863056839519075

>  <compound_id>  (41) 
2355

>  <target_id>  (41) 
1

>  <reference_id>  (41) 
163

>  <inspiration_ids>  (41) 
[163, 189]

>  <energy_score>  (41) 
-176.67373343028657

>  <distance_score>  (41) 
1.0794961376679812

>  <path>  (41) 
/opt/xchem-fragalysis-2/maxwin/BulkDock/SCRATCH/505736/C2355-P163/C2355-P163.minimised.mol

>  <scratch_subdir>  (41) 
/opt/xchem-fragalysis-2/maxwin/BulkDock/SCRATCH/505736/C2355-P163

>  <fragmenstein_runtime>  (41) 
5.642477750778198

>  <fragmenstein_outcome>  (41) 
too moved

>  <fragmenstein_mode>  (41) 
expansion

>  <fragmenstein_error>  (41) 


$$$$
C2355-P189
     RDKit          3D

 65 69  0  0  0  0  0  0  0  0999 V2000
   -2.2852    1.9985   27.0030 C   0  0  0  0  0  0  0  0  0  0  0  0
   -1.8712    0.5888   27.4002 C   0  0  0  0  0  0  0  0  0  0  0  0
   -2.7232   -0.3010   26.7110 O   0  0  0  0  0  0  0  0  0  0  0  0
   -2.0196    0.3377   28.8953 C   0  0  0  0  0  0  0  0  0  0  0  0
   -1.4222   -0.9928   29.3360 C   0  0  0  0  0  0  0  0  0  0  0  0
   -1.4482   -1.2057   30.8720 C   0  0  0  0  0  0  0  0  0  0  0  0
   -0.5675   -0.2472   31.7073 C   0  0  0  0  0  0  0  0  0  0  0  0
    0.9810   -0.3375   31.5687 C   0  0  0  0  0  0  0  0  0  0  0  0
    1.6376    1.0195   31.9191 C   0  0  0  0  0  0  0  0  0  0  0  0
    2.3284    1.6879   30.7257 C   0  0  0  0  0  0  0  0  0  0  0  0
    1.4473    1.9692   29.5141 C   0  0  0  0  0  0  0  0  0  0  0  0
    0.2980    2.7573   29.8841 N   0  0  0  0  0  0  0  0  0  0  0  0
    1.5564   -1.3934   32.4797 C   0  0  0  0  0  0  0  0  0  0  0  0
    1.4387   -1.4178   33.7964 N   0  0  0  0  0  0  0  0  0  0  0  0
    1.7913   -2.6756   34.2413 N   0  0  0  0  0  0  0  0  0  0  0  0
    2.1313   -3.3824   33.1900 C   0  0  0  0  0  0  0  0  0  0  0  0
    2.1942   -2.5530   32.0885 N   0  0  0  0  0  0  0  0  0  0  0  0
    2.7152   -2.8866   30.7684 C   0  0  0  0  0  0  0  0  0  0  0  0
    2.1242   -4.1614   30.2265 C   0  0  0  0  0  0  0  0  0  0  0  0
    0.8231   -4.4886   30.3333 C   0  0  0  0  0  0  0  0  0  0  0  0
    0.3219   -5.8899   30.2842 C   0  0  0  0  0  0  0  0  0  0  0  0
   -0.2204   -6.6155   31.4645 C   0  0  0  0  0  0  0  0  0  0  0  0
   -1.0811   -7.6043   31.2678 N   0  0  0  0  0  0  0  0  0  0  0  0
   -1.5545   -8.0194   32.4647 N   0  0  0  0  0  0  0  0  0  0  0  0
   -0.9713   -7.3001   33.3928 C   0  0  0  0  0  0  0  0  0  0  0  0
   -1.1514   -7.3149   34.7967 C   0  0  0  0  0  0  0  0  0  0  0  0
   -0.3801   -6.5436   35.5749 C   0  0  0  0  0  0  0  0  0  0  0  0
    0.7045   -5.7699   35.0074 C   0  0  0  0  0  0  0  0  0  0  0  0
    0.9066   -5.7317   33.6698 C   0  0  0  0  0  0  0  0  0  0  0  0
   -0.0009   -6.4507   32.8348 N   0  0  0  0  0  0  0  0  0  0  0  0
    2.4372   -5.0919   33.1283 S   0  0  0  0  0  0  0  0  0  0  0  0
   -0.0448   -3.3864   30.1257 N   0  0  0  0  0  0  0  0  0  0  0  0
   -1.1949   -2.9504   31.2862 S   0  0  0  0  0  0  0  0  0  0  0  0
   -2.4291   -3.6382   31.0341 O   0  0  0  0  0  0  0  0  0  0  0  0
   -0.6098   -3.1019   32.5861 O   0  0  0  0  0  0  0  0  0  0  0  0
   -3.3499    2.1664   27.1897 H   0  0  0  0  0  0  0  0  0  0  0  0
   -1.7093    2.7589   27.5346 H   0  0  0  0  0  0  0  0  0  0  0  0
   -2.1390    2.1471   25.9276 H   0  0  0  0  0  0  0  0  0  0  0  0
   -0.8336    0.4206   27.0962 H   0  0  0  0  0  0  0  0  0  0  0  0
   -2.1937   -0.8658   26.1030 H   0  0  0  0  0  0  0  0  0  0  0  0
   -3.0654    0.3564   29.1871 H   0  0  0  0  0  0  0  0  0  0  0  0
   -1.5428    1.1505   29.4364 H   0  0  0  0  0  0  0  0  0  0  0  0
   -1.9680   -1.8054   28.8409 H   0  0  0  0  0  0  0  0  0  0  0  0
   -0.3956   -1.0198   28.9602 H   0  0  0  0  0  0  0  0  0  0  0  0
   -2.4825   -1.0252   31.1993 H   0  0  0  0  0  0  0  0  0  0  0  0
   -0.8894    0.7703   31.4637 H   0  0  0  0  0  0  0  0  0  0  0  0
   -0.8376   -0.3747   32.7650 H   0  0  0  0  0  0  0  0  0  0  0  0
    1.2101   -0.5876   30.5329 H   0  0  0  0  0  0  0  0  0  0  0  0
    0.9061    1.7124   32.3530 H   0  0  0  0  0  0  0  0  0  0  0  0
    2.4062    0.8957   32.6942 H   0  0  0  0  0  0  0  0  0  0  0  0
    2.7736    2.6298   31.0726 H   0  0  0  0  0  0  0  0  0  0  0  0
    3.1671    1.0571   30.4044 H   0  0  0  0  0  0  0  0  0  0  0  0
    2.0369    2.5134   28.7676 H   0  0  0  0  0  0  0  0  0  0  0  0
    1.1215    1.0406   29.0377 H   0  0  0  0  0  0  0  0  0  0  0  0
   -0.1702    3.0990   29.0417 H   0  0  0  0  0  0  0  0  0  0  0  0
    0.6039    3.6129   30.3556 H   0  0  0  0  0  0  0  0  0  0  0  0
    2.5803   -2.0571   30.0725 H   0  0  0  0  0  0  0  0  0  0  0  0
    3.7960   -3.0136   30.9061 H   0  0  0  0  0  0  0  0  0  0  0  0
    2.8521   -4.9636   30.1058 H   0  0  0  0  0  0  0  0  0  0  0  0
   -0.4834   -5.8892   29.5468 H   0  0  0  0  0  0  0  0  0  0  0  0
    1.1005   -6.5326   29.8546 H   0  0  0  0  0  0  0  0  0  0  0  0
   -1.9173   -7.9587   35.2069 H   0  0  0  0  0  0  0  0  0  0  0  0
   -0.5083   -6.5285   36.6533 H   0  0  0  0  0  0  0  0  0  0  0  0
    1.3781   -5.2867   35.7117 H   0  0  0  0  0  0  0  0  0  0  0  0
    0.3593   -2.6104   29.6143 H   0  0  0  0  0  0  0  0  0  0  0  0
  1  2  1  0
  2  3  1  0
  2  4  1  0
  4  5  1  0
  5  6  1  0
  6  7  1  0
  7  8  1  0
  8  9  1  0
  9 10  1  0
 10 11  1  0
 11 12  1  0
  8 13  1  0
 13 14  2  0
 14 15  1  0
 15 16  2  0
 16 17  1  0
 17 18  1  0
 18 19  1  0
 19 20  2  3
 20 21  1  0
 21 22  1  0
 22 23  2  0
 23 24  1  0
 24 25  2  0
 25 26  1  0
 26 27  2  0
 27 28  1  0
 28 29  2  0
 29 30  1  0
 29 31  1  0
 20 32  1  0
 32 33  1  0
 33 34  2  0
 33 35  2  0
 33  6  1  0
 17 13  1  0
 30 22  1  0
 31 16  1  0
 30 25  1  0
  1 36  1  0
  1 37  1  0
  1 38  1  0
  2 39  1  0
  3 40  1  0
  4 41  1  0
  4 42  1  0
  5 43  1  0
  5 44  1  0
  6 45  1  0
  7 46  1  0
  7 47  1  0
  8 48  1  0
  9 49  1  0
  9 50  1  0
 10 51  1  0
 10 52  1  0
 11 53  1  0
 11 54  1  0
 12 55  1  0
 12 56  1  0
 18 57  1  0
 18 58  1  0
 19 59  1  0
 21 60  1  0
 21 61  1  0
 26 62  1  0
 27 63  1  0
 28 64  1  0
 32 65  1  0
M  END
>  <Energy>  (42) 
69.268720403138687

>  <compound_id>  (42) 
2355

>  <target_id>  (42) 
1

>  <reference_id>  (42) 
189

>  <inspiration_ids>  (42) 
[163, 189]

>  <energy_score>  (42) 
-184.2680698666691

>  <distance_score>  (42) 
1.1895647004326768

>  <path>  (42) 
/opt/xchem-fragalysis-2/maxwin/BulkDock/SCRATCH/505736/C2355-P189/C2355-P189.minimised.mol

>  <scratch_subdir>  (42) 
/opt/xchem-fragalysis-2/maxwin/BulkDock/SCRATCH/505736/C2355-P189

>  <fragmenstein_runtime>  (42) 
4.296299695968628

>  <fragmenstein_outcome>  (42) 
too moved

>  <fragmenstein_mode>  (42) 
expansion

>  <fragmenstein_error>  (42) 


$$$$
C2357-P163
     RDKit          3D

 65 68  0  0  0  0  0  0  0  0999 V2000
    0.6575   -0.4449   27.9772 C   0  0  0  0  0  0  0  0  0  0  0  0
   -0.5404   -0.0111   28.7073 N   0  0  0  0  0  0  0  0  0  0  0  0
   -1.5414    0.4368   27.7231 C   0  0  0  0  0  0  0  0  0  0  0  0
   -1.0252   -1.1442   29.4546 N   0  0  0  0  0  0  0  0  0  0  0  0
   -1.4305   -0.8642   30.8576 C   0  0  0  0  0  0  0  0  0  0  0  0
   -0.5247    0.0535   31.7089 C   0  0  0  0  0  0  0  0  0  0  0  0
    0.9904   -0.2143   31.6823 C   0  0  0  0  0  0  0  0  0  0  0  0
    1.7908    1.0091   32.1726 C   0  0  0  0  0  0  0  0  0  0  0  0
    2.0826    2.0765   31.1051 C   0  0  0  0  0  0  0  0  0  0  0  0
    0.9230    3.0030   30.7530 C   0  0  0  0  0  0  0  0  0  0  0  0
    0.1995    2.6009   29.5662 N   0  0  0  0  0  0  0  0  0  0  0  0
    1.3655   -1.4144   32.5137 C   0  0  0  0  0  0  0  0  0  0  0  0
    1.2069   -1.5240   33.8191 N   0  0  0  0  0  0  0  0  0  0  0  0
    1.5467   -2.8011   34.1963 N   0  0  0  0  0  0  0  0  0  0  0  0
    1.9295   -3.4465   33.1227 C   0  0  0  0  0  0  0  0  0  0  0  0
    2.3685   -5.1213   33.0378 S   0  0  0  0  0  0  0  0  0  0  0  0
    0.9284   -5.8660   33.6796 C   0  0  0  0  0  0  0  0  0  0  0  0
    0.5854   -5.7360   34.9775 C   0  0  0  0  0  0  0  0  0  0  0  0
   -0.5558   -6.4680   35.5018 C   0  0  0  0  0  0  0  0  0  0  0  0
   -1.2915   -7.2750   34.7184 C   0  0  0  0  0  0  0  0  0  0  0  0
   -0.9795   -7.4053   33.3410 C   0  0  0  0  0  0  0  0  0  0  0  0
   -1.5452   -8.1278   32.3945 N   0  0  0  0  0  0  0  0  0  0  0  0
   -0.7513   -7.9693   31.3146 C   0  0  0  0  0  0  0  0  0  0  0  0
   -0.8609   -8.6467   30.1699 O   0  0  0  0  0  0  0  0  0  0  0  0
    0.2670   -7.0943   31.5589 C   0  0  0  0  0  0  0  0  0  0  0  0
    0.1373   -6.7142   32.8730 N   0  0  0  0  0  0  0  0  0  0  0  0
    1.8959   -2.6011   32.0387 N   0  0  0  0  0  0  0  0  0  0  0  0
    2.2028   -2.9226   30.6643 C   0  0  0  0  0  0  0  0  0  0  0  0
    1.3142   -3.9605   29.9658 C   0  0  0  0  0  0  0  0  0  0  0  0
   -0.2073   -3.9575   30.1984 C   0  0  0  0  0  0  0  0  0  0  0  0
   -0.5604   -3.4729   31.5260 N   0  0  0  0  0  0  0  0  0  0  0  0
   -1.8155   -2.4233   31.8386 S   0  0  0  0  0  0  0  0  0  0  0  0
   -2.9842   -3.0787   31.3036 O   0  0  0  0  0  0  0  0  0  0  0  0
   -1.7666   -2.1412   33.2529 O   0  0  0  0  0  0  0  0  0  0  0  0
    0.9666    0.3036   27.2419 H   0  0  0  0  0  0  0  0  0  0  0  0
    1.5148   -0.5523   28.6419 H   0  0  0  0  0  0  0  0  0  0  0  0
    0.5015   -1.4077   27.4932 H   0  0  0  0  0  0  0  0  0  0  0  0
   -2.0012   -0.3877   27.1702 H   0  0  0  0  0  0  0  0  0  0  0  0
   -1.0997    1.1302   26.9977 H   0  0  0  0  0  0  0  0  0  0  0  0
   -2.2975    1.0219   28.2429 H   0  0  0  0  0  0  0  0  0  0  0  0
   -1.7977   -1.6327   28.9794 H   0  0  0  0  0  0  0  0  0  0  0  0
   -2.4120   -0.3729   30.8167 H   0  0  0  0  0  0  0  0  0  0  0  0
   -0.8720    0.0649   32.7498 H   0  0  0  0  0  0  0  0  0  0  0  0
   -0.7252    1.0681   31.3722 H   0  0  0  0  0  0  0  0  0  0  0  0
    1.3001   -0.3768   30.6593 H   0  0  0  0  0  0  0  0  0  0  0  0
    1.3033    1.4672   33.0428 H   0  0  0  0  0  0  0  0  0  0  0  0
    2.7726    0.6667   32.5303 H   0  0  0  0  0  0  0  0  0  0  0  0
    2.8822    2.7108   31.5122 H   0  0  0  0  0  0  0  0  0  0  0  0
    2.5100    1.6134   30.2069 H   0  0  0  0  0  0  0  0  0  0  0  0
    1.3195    4.0080   30.5654 H   0  0  0  0  0  0  0  0  0  0  0  0
    0.2409    3.1076   31.6020 H   0  0  0  0  0  0  0  0  0  0  0  0
    0.0251    1.5940   29.5298 H   0  0  0  0  0  0  0  0  0  0  0  0
    0.7490    2.8093   28.7348 H   0  0  0  0  0  0  0  0  0  0  0  0
    1.1450   -5.1160   35.6740 H   0  0  0  0  0  0  0  0  0  0  0  0
   -0.7819   -6.3562   36.5587 H   0  0  0  0  0  0  0  0  0  0  0  0
   -2.1121   -7.8610   35.1065 H   0  0  0  0  0  0  0  0  0  0  0  0
   -0.1137   -9.2785   30.0988 H   0  0  0  0  0  0  0  0  0  0  0  0
    1.0761   -6.7672   30.9367 H   0  0  0  0  0  0  0  0  0  0  0  0
    3.2422   -3.2764   30.6547 H   0  0  0  0  0  0  0  0  0  0  0  0
    2.2216   -2.0093   30.0750 H   0  0  0  0  0  0  0  0  0  0  0  0
    1.7021   -4.9463   30.2271 H   0  0  0  0  0  0  0  0  0  0  0  0
    1.4936   -3.8960   28.8841 H   0  0  0  0  0  0  0  0  0  0  0  0
   -0.5702   -4.9818   30.0969 H   0  0  0  0  0  0  0  0  0  0  0  0
   -0.6999   -3.4194   29.3951 H   0  0  0  0  0  0  0  0  0  0  0  0
   -0.4512   -4.0948   32.3258 H   0  0  0  0  0  0  0  0  0  0  0  0
  1  2  1  0
  2  3  1  0
  2  4  1  0
  4  5  1  0
  5  6  1  0
  6  7  1  0
  7  8  1  0
  8  9  1  0
  9 10  1  0
 10 11  1  0
  7 12  1  0
 12 13  2  0
 13 14  1  0
 14 15  2  0
 15 16  1  0
 16 17  1  0
 17 18  2  0
 18 19  1  0
 19 20  2  0
 20 21  1  0
 21 22  2  0
 22 23  1  0
 23 24  1  0
 23 25  2  0
 25 26  1  0
 15 27  1  0
 27 28  1  0
 28 29  1  0
 29 30  1  0
 30 31  1  0
 31 32  1  0
 32 33  2  0
 32 34  2  0
 32  5  1  0
 27 12  1  0
 26 17  1  0
 26 21  1  0
  1 35  1  0
  1 36  1  0
  1 37  1  0
  3 38  1  0
  3 39  1  0
  3 40  1  0
  4 41  1  0
  5 42  1  0
  6 43  1  0
  6 44  1  0
  7 45  1  0
  8 46  1  0
  8 47  1  0
  9 48  1  0
  9 49  1  0
 10 50  1  0
 10 51  1  0
 11 52  1  0
 11 53  1  0
 18 54  1  0
 19 55  1  0
 20 56  1  0
 24 57  1  0
 25 58  1  0
 28 59  1  0
 28 60  1  0
 29 61  1  0
 29 62  1  0
 30 63  1  0
 30 64  1  0
 31 65  1  0
M  END
>  <Energy>  (43) 
68.729546892308008

>  <compound_id>  (43) 
2357

>  <target_id>  (43) 
1

>  <reference_id>  (43) 
163

>  <inspiration_ids>  (43) 
[163, 194]

>  <energy_score>  (43) 
-92.44427327853299

>  <distance_score>  (43) 
0.9302533422815171

>  <path>  (43) 
/opt/xchem-fragalysis-2/maxwin/BulkDock/SCRATCH/505736/C2357-P163/C2357-P163.minimised.mol

>  <scratch_subdir>  (43) 
/opt/xchem-fragalysis-2/maxwin/BulkDock/SCRATCH/505736/C2357-P163

>  <fragmenstein_runtime>  (43) 
5.534976243972778

>  <fragmenstein_outcome>  (43) 
acceptable

>  <fragmenstein_mode>  (43) 
expansion

>  <fragmenstein_error>  (43) 


$$$$
C2357-P194
     RDKit          3D

 65 68  0  0  0  0  0  0  0  0999 V2000
    0.4296   -0.0266   27.9289 C   0  0  0  0  0  0  0  0  0  0  0  0
   -0.8444    0.2139   28.6288 N   0  0  0  0  0  0  0  0  0  0  0  0
   -1.8433    0.5385   27.5954 C   0  0  0  0  0  0  0  0  0  0  0  0
   -1.2047   -1.0030   29.3456 N   0  0  0  0  0  0  0  0  0  0  0  0
   -1.5172   -0.7796   30.7857 C   0  0  0  0  0  0  0  0  0  0  0  0
   -0.5245    0.0797   31.6013 C   0  0  0  0  0  0  0  0  0  0  0  0
    0.9775   -0.2717   31.5638 C   0  0  0  0  0  0  0  0  0  0  0  0
    1.8317    0.9403   32.0000 C   0  0  0  0  0  0  0  0  0  0  0  0
    2.0635    2.0175   30.9298 C   0  0  0  0  0  0  0  0  0  0  0  0
    0.9287    3.0186   30.7134 C   0  0  0  0  0  0  0  0  0  0  0  0
    0.2149    2.7907   29.4741 N   0  0  0  0  0  0  0  0  0  0  0  0
    1.3128   -1.4372   32.4603 C   0  0  0  0  0  0  0  0  0  0  0  0
    1.0892   -1.4941   33.7600 N   0  0  0  0  0  0  0  0  0  0  0  0
    1.4190   -2.7505   34.2077 N   0  0  0  0  0  0  0  0  0  0  0  0
    1.8685   -3.4310   33.1839 C   0  0  0  0  0  0  0  0  0  0  0  0
    2.3714   -5.0852   33.1961 S   0  0  0  0  0  0  0  0  0  0  0  0
    0.8939   -5.8480   33.6977 C   0  0  0  0  0  0  0  0  0  0  0  0
    0.4718   -5.7903   34.9758 C   0  0  0  0  0  0  0  0  0  0  0  0
   -0.6850   -6.5672   35.3849 C   0  0  0  0  0  0  0  0  0  0  0  0
   -1.3349   -7.3697   34.5232 C   0  0  0  0  0  0  0  0  0  0  0  0
   -0.9155   -7.4477   33.1669 C   0  0  0  0  0  0  0  0  0  0  0  0
   -1.3369   -8.1984   32.1642 N   0  0  0  0  0  0  0  0  0  0  0  0
   -0.5326   -7.8698   31.1278 C   0  0  0  0  0  0  0  0  0  0  0  0
   -0.4996   -8.4795   29.9430 O   0  0  0  0  0  0  0  0  0  0  0  0
    0.3836   -6.9184   31.4681 C   0  0  0  0  0  0  0  0  0  0  0  0
    0.1782   -6.6633   32.8002 N   0  0  0  0  0  0  0  0  0  0  0  0
    1.8689   -2.6398   32.0612 N   0  0  0  0  0  0  0  0  0  0  0  0
    2.2448   -3.0441   30.7257 C   0  0  0  0  0  0  0  0  0  0  0  0
    1.1199   -3.2339   29.7015 C   0  0  0  0  0  0  0  0  0  0  0  0
   -0.2342   -3.8149   30.1294 C   0  0  0  0  0  0  0  0  0  0  0  0
   -0.6366   -3.3648   31.4527 N   0  0  0  0  0  0  0  0  0  0  0  0
   -1.8998   -2.3323   31.7485 S   0  0  0  0  0  0  0  0  0  0  0  0
   -3.0583   -2.9916   31.1965 O   0  0  0  0  0  0  0  0  0  0  0  0
   -1.8736   -2.0457   33.1628 O   0  0  0  0  0  0  0  0  0  0  0  0
    0.6685    0.7930   27.2432 H   0  0  0  0  0  0  0  0  0  0  0  0
    1.2723   -0.0708   28.6181 H   0  0  0  0  0  0  0  0  0  0  0  0
    0.4067   -0.9653   27.3795 H   0  0  0  0  0  0  0  0  0  0  0  0
   -2.1700   -0.3366   27.0257 H   0  0  0  0  0  0  0  0  0  0  0  0
   -1.4549    1.2787   26.8851 H   0  0  0  0  0  0  0  0  0  0  0  0
   -2.6928    1.0339   28.0611 H   0  0  0  0  0  0  0  0  0  0  0  0
   -1.9891   -1.5059   28.9078 H   0  0  0  0  0  0  0  0  0  0  0  0
   -2.4836   -0.2557   30.8178 H   0  0  0  0  0  0  0  0  0  0  0  0
   -0.8546    0.1307   32.6471 H   0  0  0  0  0  0  0  0  0  0  0  0
   -0.6664    1.0963   31.2506 H   0  0  0  0  0  0  0  0  0  0  0  0
    1.2782   -0.5237   30.5535 H   0  0  0  0  0  0  0  0  0  0  0  0
    1.4193    1.3958   32.9099 H   0  0  0  0  0  0  0  0  0  0  0  0
    2.8299    0.5741   32.2814 H   0  0  0  0  0  0  0  0  0  0  0  0
    2.9336    2.5999   31.2646 H   0  0  0  0  0  0  0  0  0  0  0  0
    2.3800    1.5555   29.9871 H   0  0  0  0  0  0  0  0  0  0  0  0
    1.3691    4.0204   30.6435 H   0  0  0  0  0  0  0  0  0  0  0  0
    0.2479    3.0499   31.5692 H   0  0  0  0  0  0  0  0  0  0  0  0
   -0.2581    1.8857   29.4451 H   0  0  0  0  0  0  0  0  0  0  0  0
   -0.5073    3.5019   29.3516 H   0  0  0  0  0  0  0  0  0  0  0  0
    0.9812   -5.2032   35.7362 H   0  0  0  0  0  0  0  0  0  0  0  0
   -0.9876   -6.4958   36.4252 H   0  0  0  0  0  0  0  0  0  0  0  0
   -2.1678   -7.9852   34.8368 H   0  0  0  0  0  0  0  0  0  0  0  0
   -0.5902   -9.4382   30.1072 H   0  0  0  0  0  0  0  0  0  0  0  0
    1.1880   -6.4745   30.9056 H   0  0  0  0  0  0  0  0  0  0  0  0
    2.8250   -3.9695   30.7818 H   0  0  0  0  0  0  0  0  0  0  0  0
    2.9504   -2.2883   30.3580 H   0  0  0  0  0  0  0  0  0  0  0  0
    1.5063   -3.8386   28.8703 H   0  0  0  0  0  0  0  0  0  0  0  0
    0.9416   -2.2619   29.2518 H   0  0  0  0  0  0  0  0  0  0  0  0
   -0.1794   -4.8994   30.1277 H   0  0  0  0  0  0  0  0  0  0  0  0
   -0.9922   -3.5804   29.3768 H   0  0  0  0  0  0  0  0  0  0  0  0
   -0.4708   -3.9540   32.2677 H   0  0  0  0  0  0  0  0  0  0  0  0
  1  2  1  0
  2  3  1  0
  2  4  1  0
  4  5  1  0
  5  6  1  0
  6  7  1  0
  7  8  1  0
  8  9  1  0
  9 10  1  0
 10 11  1  0
  7 12  1  0
 12 13  2  0
 13 14  1  0
 14 15  2  0
 15 16  1  0
 16 17  1  0
 17 18  2  0
 18 19  1  0
 19 20  2  0
 20 21  1  0
 21 22  2  0
 22 23  1  0
 23 24  1  0
 23 25  2  0
 25 26  1  0
 15 27  1  0
 27 28  1  0
 28 29  1  0
 29 30  1  0
 30 31  1  0
 31 32  1  0
 32 33  2  0
 32 34  2  0
 32  5  1  0
 27 12  1  0
 26 17  1  0
 26 21  1  0
  1 35  1  0
  1 36  1  0
  1 37  1  0
  3 38  1  0
  3 39  1  0
  3 40  1  0
  4 41  1  0
  5 42  1  0
  6 43  1  0
  6 44  1  0
  7 45  1  0
  8 46  1  0
  8 47  1  0
  9 48  1  0
  9 49  1  0
 10 50  1  0
 10 51  1  0
 11 52  1  0
 11 53  1  0
 18 54  1  0
 19 55  1  0
 20 56  1  0
 24 57  1  0
 25 58  1  0
 28 59  1  0
 28 60  1  0
 29 61  1  0
 29 62  1  0
 30 63  1  0
 30 64  1  0
 31 65  1  0
M  END
>  <Energy>  (44) 
59.117864420773316

>  <compound_id>  (44) 
2357

>  <target_id>  (44) 
1

>  <reference_id>  (44) 
194

>  <inspiration_ids>  (44) 
[163, 194]

>  <energy_score>  (44) 
-102.055955750071

>  <distance_score>  (44) 
0.9868110973182703

>  <path>  (44) 
/opt/xchem-fragalysis-2/maxwin/BulkDock/SCRATCH/505736/C2357-P194/C2357-P194.minimised.mol

>  <scratch_subdir>  (44) 
/opt/xchem-fragalysis-2/maxwin/BulkDock/SCRATCH/505736/C2357-P194

>  <fragmenstein_runtime>  (44) 
5.206469774246216

>  <fragmenstein_outcome>  (44) 
acceptable

>  <fragmenstein_mode>  (44) 
expansion

>  <fragmenstein_error>  (44) 


$$$$
C2358-P163
     RDKit          3D

 72 78  0  0  0  0  0  0  0  0999 V2000
   -1.8388    1.6798   27.3238 C   0  0  0  0  0  0  0  0  0  0  0  0
   -0.9596    0.5355   27.4641 N   0  0  0  0  0  0  0  0  0  0  0  0
    0.4473    0.8324   27.7527 C   0  0  0  0  0  0  0  0  0  0  0  0
    0.8786    0.7384   29.1456 N   0  0  0  0  0  0  0  0  0  0  0  0
    1.6946    1.8553   29.5949 C   0  0  0  0  0  0  0  0  0  0  0  0
    0.9423    2.7549   30.5596 C   0  0  0  0  0  0  0  0  0  0  0  0
    0.5238    1.9740   31.8053 C   0  0  0  0  0  0  0  0  0  0  0  0
    0.1136    0.4644   31.5549 C   0  0  0  0  0  0  0  0  0  0  0  0
   -0.1988    0.3103   30.0400 C   0  0  0  0  0  0  0  0  0  0  0  0
   -0.9708   -0.9157   29.4697 C   0  0  0  0  0  0  0  0  0  0  0  0
   -1.6191   -0.5418   28.1793 N   0  0  0  0  0  0  0  0  0  0  0  0
   -0.1300   -2.4922   29.2527 S   0  0  0  0  0  0  0  0  0  0  0  0
    1.3217   -2.1907   28.6498 O   0  0  0  0  0  0  0  0  0  0  0  0
   -0.8990   -3.1527   28.0216 O   0  0  0  0  0  0  0  0  0  0  0  0
   -0.1605   -3.6132   30.4775 N   0  0  0  0  0  0  0  0  0  0  0  0
    0.9936   -4.3685   30.6643 C   0  0  0  0  0  0  0  0  0  0  0  0
    2.1467   -3.8438   31.1221 C   0  0  0  0  0  0  0  0  0  0  0  0
    2.2862   -2.4215   31.5846 C   0  0  0  0  0  0  0  0  0  0  0  0
    1.0320   -1.8775   32.1710 N   0  0  0  0  0  0  0  0  0  0  0  0
    0.8234   -2.4103   33.5289 C   0  0  0  0  0  0  0  0  0  0  0  0
    0.3525   -1.2569   34.2779 N   0  0  0  0  0  0  0  0  0  0  0  0
    1.1303   -0.1744   33.7521 N   0  0  0  0  0  0  0  0  0  0  0  0
    1.1754   -0.4245   32.2892 C   0  0  0  0  0  0  0  0  0  0  0  0
   -0.4683   -3.6974   33.6232 S   0  0  0  0  0  0  0  0  0  0  0  0
    0.5613   -5.2133   33.7332 C   0  0  0  0  0  0  0  0  0  0  0  0
    0.7747   -5.5928   35.2175 C   0  0  0  0  0  0  0  0  0  0  0  0
   -0.4231   -6.3041   35.8561 C   0  0  0  0  0  0  0  0  0  0  0  0
   -0.8672   -7.4804   34.9913 C   0  0  0  0  0  0  0  0  0  0  0  0
   -1.0975   -7.0024   33.5678 C   0  0  0  0  0  0  0  0  0  0  0  0
   -1.4730   -8.0302   32.5879 N   0  0  0  0  0  0  0  0  0  0  0  0
   -0.7833   -7.6439   31.3415 N   0  0  0  0  0  0  0  0  0  0  0  0
   -0.2842   -6.2845   31.6080 C   0  0  0  0  0  0  0  0  0  0  0  0
    0.8071   -5.8592   30.6176 C   0  0  0  0  0  0  0  0  0  0  0  0
    0.0906   -6.3954   33.0087 N   0  0  0  0  0  0  0  0  0  0  0  0
   -2.7982    1.3904   26.8823 H   0  0  0  0  0  0  0  0  0  0  0  0
   -1.4074    2.4187   26.6391 H   0  0  0  0  0  0  0  0  0  0  0  0
   -2.0320    2.1790   28.2776 H   0  0  0  0  0  0  0  0  0  0  0  0
    1.0601    0.1171   27.1993 H   0  0  0  0  0  0  0  0  0  0  0  0
    0.7011    1.8029   27.3075 H   0  0  0  0  0  0  0  0  0  0  0  0
    2.5786    1.4495   30.1023 H   0  0  0  0  0  0  0  0  0  0  0  0
    2.0923    2.4497   28.7637 H   0  0  0  0  0  0  0  0  0  0  0  0
    0.0696    3.1892   30.0602 H   0  0  0  0  0  0  0  0  0  0  0  0
    1.5748    3.6000   30.8559 H   0  0  0  0  0  0  0  0  0  0  0  0
   -0.2875    2.4960   32.3134 H   0  0  0  0  0  0  0  0  0  0  0  0
    1.3697    2.0403   32.5005 H   0  0  0  0  0  0  0  0  0  0  0  0
   -0.8431    0.3069   32.0765 H   0  0  0  0  0  0  0  0  0  0  0  0
   -0.9694    1.0939   29.9563 H   0  0  0  0  0  0  0  0  0  0  0  0
   -1.7822   -1.1547   30.1677 H   0  0  0  0  0  0  0  0  0  0  0  0
   -1.5957   -1.3805   27.5747 H   0  0  0  0  0  0  0  0  0  0  0  0
    1.2581   -1.9150   27.7062 H   0  0  0  0  0  0  0  0  0  0  0  0
   -1.8266   -3.4912   28.1384 H   0  0  0  0  0  0  0  0  0  0  0  0
   -0.2665   -3.0641   31.3420 H   0  0  0  0  0  0  0  0  0  0  0  0
    3.0168   -4.4763   31.2667 H   0  0  0  0  0  0  0  0  0  0  0  0
    2.6110   -1.8281   30.7217 H   0  0  0  0  0  0  0  0  0  0  0  0
    3.1077   -2.3609   32.3114 H   0  0  0  0  0  0  0  0  0  0  0  0
    1.7484   -2.7665   34.0012 H   0  0  0  0  0  0  0  0  0  0  0  0
    0.5160   -1.4245   35.2710 H   0  0  0  0  0  0  0  0  0  0  0  0
    0.6862    0.7223   33.9519 H   0  0  0  0  0  0  0  0  0  0  0  0
    2.1665   -0.0875   31.9588 H   0  0  0  0  0  0  0  0  0  0  0  0
    1.5565   -4.9743   33.3549 H   0  0  0  0  0  0  0  0  0  0  0  0
    1.6364   -6.2734   35.2756 H   0  0  0  0  0  0  0  0  0  0  0  0
    1.0487   -4.7151   35.8159 H   0  0  0  0  0  0  0  0  0  0  0  0
   -0.1529   -6.6605   36.8564 H   0  0  0  0  0  0  0  0  0  0  0  0
   -1.2533   -5.6000   35.9837 H   0  0  0  0  0  0  0  0  0  0  0  0
   -0.0873   -8.2454   35.0241 H   0  0  0  0  0  0  0  0  0  0  0  0
   -1.7791   -7.9248   35.4011 H   0  0  0  0  0  0  0  0  0  0  0  0
   -1.9069   -6.2772   33.5896 H   0  0  0  0  0  0  0  0  0  0  0  0
   -1.1042   -8.9205   32.9281 H   0  0  0  0  0  0  0  0  0  0  0  0
   -1.4272   -7.5765   30.5564 H   0  0  0  0  0  0  0  0  0  0  0  0
   -1.1475   -5.6155   31.4972 H   0  0  0  0  0  0  0  0  0  0  0  0
    0.5472   -6.1490   29.6004 H   0  0  0  0  0  0  0  0  0  0  0  0
    1.7392   -6.3603   30.8691 H   0  0  0  0  0  0  0  0  0  0  0  0
  1  2  1  0
  2  3  1  0
  3  4  1  0
  4  5  1  0
  5  6  1  0
  6  7  1  0
  7  8  1  0
  8  9  1  0
  9 10  1  0
 10 11  1  0
 10 12  1  0
 12 13  1  0
 12 14  1  0
 12 15  1  0
 15 16  1  0
 16 17  2  3
 17 18  1  0
 18 19  1  0
 19 20  1  0
 20 21  1  0
 21 22  1  0
 22 23  1  0
 20 24  1  0
 24 25  1  0
 25 26  1  0
 26 27  1  0
 27 28  1  0
 28 29  1  0
 29 30  1  0
 30 31  1  0
 31 32  1  0
 32 33  1  0
 32 34  1  0
 11  2  1  0
 33 16  1  0
  9  4  1  0
 23 19  1  0
 34 25  1  0
 23  8  1  0
 34 29  1  0
  1 35  1  0
  1 36  1  0
  1 37  1  0
  3 38  1  0
  3 39  1  0
  5 40  1  0
  5 41  1  0
  6 42  1  0
  6 43  1  0
  7 44  1  0
  7 45  1  0
  8 46  1  0
  9 47  1  0
 10 48  1  0
 11 49  1  0
 13 50  1  0
 14 51  1  0
 15 52  1  0
 17 53  1  0
 18 54  1  0
 18 55  1  0
 20 56  1  0
 21 57  1  0
 22 58  1  0
 23 59  1  0
 25 60  1  0
 26 61  1  0
 26 62  1  0
 27 63  1  0
 27 64  1  0
 28 65  1  0
 28 66  1  0
 29 67  1  0
 30 68  1  0
 31 69  1  0
 32 70  1  0
 33 71  1  0
 33 72  1  0
M  END
>  <Energy>  (45) 
83.611437716406513

>  <compound_id>  (45) 
2358

>  <target_id>  (45) 
1

>  <reference_id>  (45) 
163

>  <inspiration_ids>  (45) 
[163, 195]

>  <energy_score>  (45) 
-198.41733984306896

>  <distance_score>  (45) 
1.307338278393754

>  <path>  (45) 
/opt/xchem-fragalysis-2/maxwin/BulkDock/SCRATCH/505736/C2358-P163/C2358-P163.minimised.mol

>  <scratch_subdir>  (45) 
/opt/xchem-fragalysis-2/maxwin/BulkDock/SCRATCH/505736/C2358-P163

>  <fragmenstein_runtime>  (45) 
4.4911949634552

>  <fragmenstein_outcome>  (45) 
too moved

>  <fragmenstein_mode>  (45) 
expansion

>  <fragmenstein_error>  (45) 


$$$$
C2358-P195
     RDKit          3D

 72 78  0  0  0  0  0  0  0  0999 V2000
   -2.1862    1.3426   26.9322 C   0  0  0  0  0  0  0  0  0  0  0  0
   -1.1932    0.3944   27.4331 N   0  0  0  0  0  0  0  0  0  0  0  0
   -0.0060    1.0928   27.9088 C   0  0  0  0  0  0  0  0  0  0  0  0
   -0.2370    1.6228   29.2378 N   0  0  0  0  0  0  0  0  0  0  0  0
    0.7122    2.6766   29.5753 C   0  0  0  0  0  0  0  0  0  0  0  0
    2.1277    2.1522   29.7869 C   0  0  0  0  0  0  0  0  0  0  0  0
    2.1437    0.8315   30.5574 C   0  0  0  0  0  0  0  0  0  0  0  0
    0.8054    0.5518   31.2521 C   0  0  0  0  0  0  0  0  0  0  0  0
   -0.3520    0.4863   30.2193 C   0  0  0  0  0  0  0  0  0  0  0  0
   -0.9878   -0.8188   29.5917 C   0  0  0  0  0  0  0  0  0  0  0  0
   -1.8442   -0.4865   28.4166 N   0  0  0  0  0  0  0  0  0  0  0  0
   -0.0493   -2.3169   29.3013 S   0  0  0  0  0  0  0  0  0  0  0  0
    1.3763   -1.8961   28.7152 O   0  0  0  0  0  0  0  0  0  0  0  0
   -0.7889   -2.9836   28.0523 O   0  0  0  0  0  0  0  0  0  0  0  0
   -0.0447   -3.5010   30.4690 N   0  0  0  0  0  0  0  0  0  0  0  0
    1.1187   -4.2328   30.6819 C   0  0  0  0  0  0  0  0  0  0  0  0
    2.2185   -3.7058   31.2566 C   0  0  0  0  0  0  0  0  0  0  0  0
    2.2848   -2.3196   31.8394 C   0  0  0  0  0  0  0  0  0  0  0  0
    0.9744   -1.8438   32.3219 N   0  0  0  0  0  0  0  0  0  0  0  0
    0.6352   -2.3805   33.6532 C   0  0  0  0  0  0  0  0  0  0  0  0
   -0.0409   -1.2808   34.3548 N   0  0  0  0  0  0  0  0  0  0  0  0
   -0.2079   -0.2203   33.3734 N   0  0  0  0  0  0  0  0  0  0  0  0
    0.9247   -0.4069   32.4634 C   0  0  0  0  0  0  0  0  0  0  0  0
   -0.5763   -3.7413   33.5575 S   0  0  0  0  0  0  0  0  0  0  0  0
    0.5234   -5.1949   33.7026 C   0  0  0  0  0  0  0  0  0  0  0  0
    0.6694   -5.5966   35.1876 C   0  0  0  0  0  0  0  0  0  0  0  0
   -0.5482   -6.3354   35.7477 C   0  0  0  0  0  0  0  0  0  0  0  0
   -0.9269   -7.4997   34.8373 C   0  0  0  0  0  0  0  0  0  0  0  0
   -1.0699   -7.0140   33.4024 C   0  0  0  0  0  0  0  0  0  0  0  0
   -1.3634   -8.0269   32.3779 N   0  0  0  0  0  0  0  0  0  0  0  0
   -0.6044   -7.5958   31.1802 N   0  0  0  0  0  0  0  0  0  0  0  0
   -0.1562   -6.2318   31.5036 C   0  0  0  0  0  0  0  0  0  0  0  0
    0.9723   -5.7345   30.5769 C   0  0  0  0  0  0  0  0  0  0  0  0
    0.1383   -6.3698   32.9233 N   0  0  0  0  0  0  0  0  0  0  0  0
   -1.7430    2.0226   26.1950 H   0  0  0  0  0  0  0  0  0  0  0  0
   -2.6242    1.9538   27.7276 H   0  0  0  0  0  0  0  0  0  0  0  0
   -2.9858    0.8276   26.4009 H   0  0  0  0  0  0  0  0  0  0  0  0
    0.8586    0.4219   27.8808 H   0  0  0  0  0  0  0  0  0  0  0  0
    0.2483    1.8921   27.1995 H   0  0  0  0  0  0  0  0  0  0  0  0
    0.3680    3.1944   30.4794 H   0  0  0  0  0  0  0  0  0  0  0  0
    0.7184    3.4567   28.8034 H   0  0  0  0  0  0  0  0  0  0  0  0
    2.7049    2.9059   30.3358 H   0  0  0  0  0  0  0  0  0  0  0  0
    2.6365    2.0154   28.8249 H   0  0  0  0  0  0  0  0  0  0  0  0
    2.9677    0.8598   31.2804 H   0  0  0  0  0  0  0  0  0  0  0  0
    2.3832    0.0317   29.8536 H   0  0  0  0  0  0  0  0  0  0  0  0
    0.6162    1.4988   31.7905 H   0  0  0  0  0  0  0  0  0  0  0  0
   -1.1990    0.8166   30.8336 H   0  0  0  0  0  0  0  0  0  0  0  0
   -1.7016   -1.1780   30.3482 H   0  0  0  0  0  0  0  0  0  0  0  0
   -2.0338   -1.3667   27.9205 H   0  0  0  0  0  0  0  0  0  0  0  0
    1.3277   -1.8285   27.7294 H   0  0  0  0  0  0  0  0  0  0  0  0
   -1.6850   -3.3948   28.1742 H   0  0  0  0  0  0  0  0  0  0  0  0
   -0.2278   -3.0197   31.3597 H   0  0  0  0  0  0  0  0  0  0  0  0
    3.0901   -4.3300   31.4315 H   0  0  0  0  0  0  0  0  0  0  0  0
    2.6942   -1.6813   31.0559 H   0  0  0  0  0  0  0  0  0  0  0  0
    3.0228   -2.3017   32.6517 H   0  0  0  0  0  0  0  0  0  0  0  0
    1.5085   -2.6763   34.2464 H   0  0  0  0  0  0  0  0  0  0  0  0
    0.5616   -0.9687   35.1181 H   0  0  0  0  0  0  0  0  0  0  0  0
   -1.0627   -0.4077   32.8430 H   0  0  0  0  0  0  0  0  0  0  0  0
    1.8145   -0.0763   33.0241 H   0  0  0  0  0  0  0  0  0  0  0  0
    1.5256   -4.9023   33.3878 H   0  0  0  0  0  0  0  0  0  0  0  0
    1.5390   -6.2629   35.2795 H   0  0  0  0  0  0  0  0  0  0  0  0
    0.8952   -4.7245   35.8137 H   0  0  0  0  0  0  0  0  0  0  0  0
   -0.3263   -6.7077   36.7541 H   0  0  0  0  0  0  0  0  0  0  0  0
   -1.3946   -5.6466   35.8452 H   0  0  0  0  0  0  0  0  0  0  0  0
   -0.1424   -8.2559   34.9153 H   0  0  0  0  0  0  0  0  0  0  0  0
   -1.8628   -7.9482   35.1859 H   0  0  0  0  0  0  0  0  0  0  0  0
   -1.8953   -6.3028   33.3868 H   0  0  0  0  0  0  0  0  0  0  0  0
   -0.9903   -8.9150   32.7232 H   0  0  0  0  0  0  0  0  0  0  0  0
   -1.1972   -7.5386   30.3549 H   0  0  0  0  0  0  0  0  0  0  0  0
   -1.0311   -5.5844   31.3590 H   0  0  0  0  0  0  0  0  0  0  0  0
    0.7633   -5.9912   29.5374 H   0  0  0  0  0  0  0  0  0  0  0  0
    1.9099   -6.2248   30.8431 H   0  0  0  0  0  0  0  0  0  0  0  0
  1  2  1  0
  2  3  1  0
  3  4  1  0
  4  5  1  0
  5  6  1  0
  6  7  1  0
  7  8  1  0
  8  9  1  0
  9 10  1  0
 10 11  1  0
 10 12  1  0
 12 13  1  0
 12 14  1  0
 12 15  1  0
 15 16  1  0
 16 17  2  3
 17 18  1  0
 18 19  1  0
 19 20  1  0
 20 21  1  0
 21 22  1  0
 22 23  1  0
 20 24  1  0
 24 25  1  0
 25 26  1  0
 26 27  1  0
 27 28  1  0
 28 29  1  0
 29 30  1  0
 30 31  1  0
 31 32  1  0
 32 33  1  0
 32 34  1  0
 11  2  1  0
 33 16  1  0
  9  4  1  0
 23 19  1  0
 34 25  1  0
 23  8  1  0
 34 29  1  0
  1 35  1  0
  1 36  1  0
  1 37  1  0
  3 38  1  0
  3 39  1  0
  5 40  1  0
  5 41  1  0
  6 42  1  0
  6 43  1  0
  7 44  1  0
  7 45  1  0
  8 46  1  0
  9 47  1  0
 10 48  1  0
 11 49  1  0
 13 50  1  0
 14 51  1  0
 15 52  1  0
 17 53  1  0
 18 54  1  0
 18 55  1  0
 20 56  1  0
 21 57  1  0
 22 58  1  0
 23 59  1  0
 25 60  1  0
 26 61  1  0
 26 62  1  0
 27 63  1  0
 27 64  1  0
 28 65  1  0
 28 66  1  0
 29 67  1  0
 30 68  1  0
 31 69  1  0
 32 70  1  0
 33 71  1  0
 33 72  1  0
M  END
>  <Energy>  (46) 
79.497876866273344

>  <compound_id>  (46) 
2358

>  <target_id>  (46) 
1

>  <reference_id>  (46) 
195

>  <inspiration_ids>  (46) 
[163, 195]

>  <energy_score>  (46) 
-202.5309006932014

>  <distance_score>  (46) 
1.3776369165282223

>  <path>  (46) 
/opt/xchem-fragalysis-2/maxwin/BulkDock/SCRATCH/505736/C2358-P195/C2358-P195.minimised.mol

>  <scratch_subdir>  (46) 
/opt/xchem-fragalysis-2/maxwin/BulkDock/SCRATCH/505736/C2358-P195

>  <fragmenstein_runtime>  (46) 
4.00971245765686

>  <fragmenstein_outcome>  (46) 
too moved

>  <fragmenstein_mode>  (46) 
expansion

>  <fragmenstein_error>  (46) 


$$$$
C2360-P163
     RDKit          3D

 65 69  0  0  0  0  0  0  0  0999 V2000
    0.1012    1.4591   27.4595 C   0  0  0  0  0  0  0  0  0  0  0  0
   -1.3408    1.1745   27.8596 C   0  0  0  0  0  0  0  0  0  0  0  0
   -2.1793    1.8489   26.8976 N   0  0  0  0  0  0  0  0  0  0  0  0
   -1.8001   -0.1707   27.7478 N   0  0  0  0  0  0  0  0  0  0  0  0
   -1.2439   -1.2342   28.5722 C   0  0  0  0  0  0  0  0  0  0  0  0
   -0.9483   -1.0766   30.1130 C   0  0  0  0  0  0  0  0  0  0  0  0
    0.4319   -0.4200   30.3011 C   0  0  0  0  0  0  0  0  0  0  0  0
    1.0845   -0.1398   31.6787 C   0  0  0  0  0  0  0  0  0  0  0  0
    2.3558    0.7542   31.5851 C   0  0  0  0  0  0  0  0  0  0  0  0
    2.4606    1.7745   30.4534 C   0  0  0  0  0  0  0  0  0  0  0  0
    1.6468    3.0444   30.6104 C   0  0  0  0  0  0  0  0  0  0  0  0
    0.2511    2.8181   30.9209 N   0  0  0  0  0  0  0  0  0  0  0  0
    1.4790   -1.3171   32.5372 C   0  0  0  0  0  0  0  0  0  0  0  0
    1.2491   -1.3835   33.8398 N   0  0  0  0  0  0  0  0  0  0  0  0
    1.5604   -2.6506   34.2806 N   0  0  0  0  0  0  0  0  0  0  0  0
    1.9994   -3.3287   33.2483 C   0  0  0  0  0  0  0  0  0  0  0  0
    2.1152   -2.4858   32.1574 N   0  0  0  0  0  0  0  0  0  0  0  0
    2.7099   -2.8201   30.8710 C   0  0  0  0  0  0  0  0  0  0  0  0
    2.2003   -4.1253   30.3219 C   0  0  0  0  0  0  0  0  0  0  0  0
    0.9141   -4.5190   30.2929 C   0  0  0  0  0  0  0  0  0  0  0  0
    0.5166   -5.9567   30.2898 C   0  0  0  0  0  0  0  0  0  0  0  0
   -0.1520   -6.6103   31.4485 C   0  0  0  0  0  0  0  0  0  0  0  0
   -1.0594   -7.5475   31.2141 N   0  0  0  0  0  0  0  0  0  0  0  0
   -1.5927   -7.9482   32.3893 N   0  0  0  0  0  0  0  0  0  0  0  0
   -1.0097   -7.2658   33.3450 C   0  0  0  0  0  0  0  0  0  0  0  0
   -1.2269   -7.3006   34.7439 C   0  0  0  0  0  0  0  0  0  0  0  0
   -0.4705   -6.5503   35.5558 C   0  0  0  0  0  0  0  0  0  0  0  0
    0.6242   -5.7655   35.0286 C   0  0  0  0  0  0  0  0  0  0  0  0
    0.8673   -5.7150   33.6987 C   0  0  0  0  0  0  0  0  0  0  0  0
   -0.0036   -6.4329   32.8276 N   0  0  0  0  0  0  0  0  0  0  0  0
    2.3885   -5.0248   33.2124 S   0  0  0  0  0  0  0  0  0  0  0  0
    0.0377   -3.5383   29.7443 N   0  0  0  0  0  0  0  0  0  0  0  0
   -1.0423   -2.7515   30.8043 S   0  0  0  0  0  0  0  0  0  0  0  0
   -0.5667   -2.8521   32.1486 O   0  0  0  0  0  0  0  0  0  0  0  0
   -2.3519   -3.2805   30.5533 O   0  0  0  0  0  0  0  0  0  0  0  0
    0.2033    1.6902   26.3980 H   0  0  0  0  0  0  0  0  0  0  0  0
    0.7782    0.6300   27.6792 H   0  0  0  0  0  0  0  0  0  0  0  0
    0.4634    2.3490   27.9833 H   0  0  0  0  0  0  0  0  0  0  0  0
   -1.5499    1.5587   28.8612 H   0  0  0  0  0  0  0  0  0  0  0  0
   -2.1910    2.8476   27.1092 H   0  0  0  0  0  0  0  0  0  0  0  0
   -3.1371    1.5462   27.0664 H   0  0  0  0  0  0  0  0  0  0  0  0
   -1.7531   -0.4522   26.7614 H   0  0  0  0  0  0  0  0  0  0  0  0
   -1.9487   -2.0586   28.4295 H   0  0  0  0  0  0  0  0  0  0  0  0
   -0.3218   -1.5672   28.0794 H   0  0  0  0  0  0  0  0  0  0  0  0
   -1.7379   -0.4979   30.6041 H   0  0  0  0  0  0  0  0  0  0  0  0
    0.2910    0.5602   29.8578 H   0  0  0  0  0  0  0  0  0  0  0  0
    1.1472   -0.9130   29.6431 H   0  0  0  0  0  0  0  0  0  0  0  0
    0.3344    0.4162   32.2572 H   0  0  0  0  0  0  0  0  0  0  0  0
    3.2335    0.1015   31.4708 H   0  0  0  0  0  0  0  0  0  0  0  0
    2.5057    1.2623   32.5479 H   0  0  0  0  0  0  0  0  0  0  0  0
    3.5135    2.0847   30.3941 H   0  0  0  0  0  0  0  0  0  0  0  0
    2.2648    1.3028   29.4861 H   0  0  0  0  0  0  0  0  0  0  0  0
    1.7214    3.6251   29.6838 H   0  0  0  0  0  0  0  0  0  0  0  0
    2.0866    3.6671   31.3987 H   0  0  0  0  0  0  0  0  0  0  0  0
   -0.2033    3.7303   30.7883 H   0  0  0  0  0  0  0  0  0  0  0  0
    0.1765    2.6401   31.9235 H   0  0  0  0  0  0  0  0  0  0  0  0
    3.7835   -2.9222   31.0792 H   0  0  0  0  0  0  0  0  0  0  0  0
    2.6310   -2.0073   30.1574 H   0  0  0  0  0  0  0  0  0  0  0  0
    2.9665   -4.9006   30.3510 H   0  0  0  0  0  0  0  0  0  0  0  0
   -0.2138   -6.0486   29.4884 H   0  0  0  0  0  0  0  0  0  0  0  0
    1.3574   -6.5791   29.9787 H   0  0  0  0  0  0  0  0  0  0  0  0
   -2.0056   -7.9474   35.1244 H   0  0  0  0  0  0  0  0  0  0  0  0
   -0.6224   -6.5557   36.6312 H   0  0  0  0  0  0  0  0  0  0  0  0
    1.2684   -5.2777   35.7575 H   0  0  0  0  0  0  0  0  0  0  0  0
   -0.5805   -3.9342   29.0162 H   0  0  0  0  0  0  0  0  0  0  0  0
  1  2  1  0
  2  3  1  0
  2  4  1  0
  4  5  1  0
  5  6  1  0
  6  7  1  0
  7  8  1  0
  8  9  1  0
  9 10  1  0
 10 11  1  0
 11 12  1  0
  8 13  1  0
 13 14  2  0
 14 15  1  0
 15 16  2  0
 16 17  1  0
 17 18  1  0
 18 19  1  0
 19 20  2  3
 20 21  1  0
 21 22  1  0
 22 23  2  0
 23 24  1  0
 24 25  2  0
 25 26  1  0
 26 27  2  0
 27 28  1  0
 28 29  2  0
 29 30  1  0
 29 31  1  0
 20 32  1  0
 32 33  1  0
 33 34  2  0
 33 35  2  0
 33  6  1  0
 17 13  1  0
 30 22  1  0
 31 16  1  0
 30 25  1  0
  1 36  1  0
  1 37  1  0
  1 38  1  0
  2 39  1  0
  3 40  1  0
  3 41  1  0
  4 42  1  0
  5 43  1  0
  5 44  1  0
  6 45  1  0
  7 46  1  0
  7 47  1  0
  8 48  1  0
  9 49  1  0
  9 50  1  0
 10 51  1  0
 10 52  1  0
 11 53  1  0
 11 54  1  0
 12 55  1  0
 12 56  1  0
 18 57  1  0
 18 58  1  0
 19 59  1  0
 21 60  1  0
 21 61  1  0
 26 62  1  0
 27 63  1  0
 28 64  1  0
 32 65  1  0
M  END
>  <Energy>  (47) 
7.380262644449779

>  <compound_id>  (47) 
2360

>  <target_id>  (47) 
1

>  <reference_id>  (47) 
163

>  <inspiration_ids>  (47) 
[163, 198]

>  <energy_score>  (47) 
-204.7459637548327

>  <distance_score>  (47) 
1.1542799094723113

>  <path>  (47) 
/opt/xchem-fragalysis-2/maxwin/BulkDock/SCRATCH/505736/C2360-P163/C2360-P163.minimised.mol

>  <scratch_subdir>  (47) 
/opt/xchem-fragalysis-2/maxwin/BulkDock/SCRATCH/505736/C2360-P163

>  <fragmenstein_runtime>  (47) 
5.047069787979126

>  <fragmenstein_outcome>  (47) 
too moved

>  <fragmenstein_mode>  (47) 
expansion

>  <fragmenstein_error>  (47) 


$$$$
C2360-P198
     RDKit          3D

 65 69  0  0  0  0  0  0  0  0999 V2000
   -0.3478    1.6949   27.6732 C   0  0  0  0  0  0  0  0  0  0  0  0
   -1.6788    0.9830   27.8202 C   0  0  0  0  0  0  0  0  0  0  0  0
   -2.3820    1.1624   26.5792 N   0  0  0  0  0  0  0  0  0  0  0  0
   -1.6012   -0.4417   27.9008 N   0  0  0  0  0  0  0  0  0  0  0  0
   -0.6957   -1.0664   28.8541 C   0  0  0  0  0  0  0  0  0  0  0  0
   -1.1502   -1.1321   30.3266 C   0  0  0  0  0  0  0  0  0  0  0  0
   -0.5589   -0.1109   31.3188 C   0  0  0  0  0  0  0  0  0  0  0  0
    0.9179   -0.0250   31.8189 C   0  0  0  0  0  0  0  0  0  0  0  0
    1.9841    0.5477   30.8672 C   0  0  0  0  0  0  0  0  0  0  0  0
    2.3908    2.0017   31.1427 C   0  0  0  0  0  0  0  0  0  0  0  0
    1.5984    3.0512   30.3816 C   0  0  0  0  0  0  0  0  0  0  0  0
    0.2092    3.0583   30.7820 N   0  0  0  0  0  0  0  0  0  0  0  0
    1.4182   -1.2339   32.5730 C   0  0  0  0  0  0  0  0  0  0  0  0
    1.3630   -1.3604   33.8874 N   0  0  0  0  0  0  0  0  0  0  0  0
    1.7307   -2.6411   34.2233 N   0  0  0  0  0  0  0  0  0  0  0  0
    2.0120   -3.2816   33.1131 C   0  0  0  0  0  0  0  0  0  0  0  0
    1.9592   -2.3989   32.0463 N   0  0  0  0  0  0  0  0  0  0  0  0
    2.2336   -2.6483   30.6331 C   0  0  0  0  0  0  0  0  0  0  0  0
    1.8682   -4.0295   30.2056 C   0  0  0  0  0  0  0  0  0  0  0  0
    0.6388   -4.5694   30.2040 C   0  0  0  0  0  0  0  0  0  0  0  0
    0.4281   -6.0429   30.2503 C   0  0  0  0  0  0  0  0  0  0  0  0
   -0.2099   -6.6695   31.4352 C   0  0  0  0  0  0  0  0  0  0  0  0
   -1.1336   -7.6013   31.2633 N   0  0  0  0  0  0  0  0  0  0  0  0
   -1.6189   -7.9590   32.4734 N   0  0  0  0  0  0  0  0  0  0  0  0
   -0.9904   -7.2536   33.3831 C   0  0  0  0  0  0  0  0  0  0  0  0
   -1.1438   -7.2433   34.7902 C   0  0  0  0  0  0  0  0  0  0  0  0
   -0.3506   -6.4677   35.5416 C   0  0  0  0  0  0  0  0  0  0  0  0
    0.7166   -5.6948   34.9408 C   0  0  0  0  0  0  0  0  0  0  0  0
    0.8995   -5.6858   33.6002 C   0  0  0  0  0  0  0  0  0  0  0  0
   -0.0061   -6.4423   32.7982 N   0  0  0  0  0  0  0  0  0  0  0  0
    2.3799   -4.9820   33.0018 S   0  0  0  0  0  0  0  0  0  0  0  0
   -0.4269   -3.7110   29.8224 N   0  0  0  0  0  0  0  0  0  0  0  0
   -1.2559   -2.8153   30.9856 S   0  0  0  0  0  0  0  0  0  0  0  0
   -0.5919   -2.9795   32.2426 O   0  0  0  0  0  0  0  0  0  0  0  0
   -2.6367   -3.2185   30.9353 O   0  0  0  0  0  0  0  0  0  0  0  0
   -0.4887    2.7738   27.5422 H   0  0  0  0  0  0  0  0  0  0  0  0
    0.2547    1.5429   28.5620 H   0  0  0  0  0  0  0  0  0  0  0  0
    0.2372    1.3295   26.8269 H   0  0  0  0  0  0  0  0  0  0  0  0
   -2.2358    1.4089   28.6600 H   0  0  0  0  0  0  0  0  0  0  0  0
   -3.3819    1.2115   26.7576 H   0  0  0  0  0  0  0  0  0  0  0  0
   -2.2386    0.2867   26.0669 H   0  0  0  0  0  0  0  0  0  0  0  0
   -2.5181   -0.8781   27.8974 H   0  0  0  0  0  0  0  0  0  0  0  0
   -0.5645   -2.0531   28.4174 H   0  0  0  0  0  0  0  0  0  0  0  0
    0.2998   -0.6330   28.7726 H   0  0  0  0  0  0  0  0  0  0  0  0
   -2.2200   -0.8671   30.2995 H   0  0  0  0  0  0  0  0  0  0  0  0
   -1.1706   -0.1986   32.2304 H   0  0  0  0  0  0  0  0  0  0  0  0
   -0.8192    0.8658   30.9100 H   0  0  0  0  0  0  0  0  0  0  0  0
    0.8373    0.7254   32.6226 H   0  0  0  0  0  0  0  0  0  0  0  0
    1.7027    0.4361   29.8208 H   0  0  0  0  0  0  0  0  0  0  0  0
    2.9141   -0.0248   30.9787 H   0  0  0  0  0  0  0  0  0  0  0  0
    2.3836    2.2142   32.2189 H   0  0  0  0  0  0  0  0  0  0  0  0
    3.4384    2.1145   30.8313 H   0  0  0  0  0  0  0  0  0  0  0  0
    2.0293    4.0386   30.5854 H   0  0  0  0  0  0  0  0  0  0  0  0
    1.6986    2.8948   29.3045 H   0  0  0  0  0  0  0  0  0  0  0  0
   -0.2698    3.7892   30.2362 H   0  0  0  0  0  0  0  0  0  0  0  0
    0.1612    3.4097   31.7401 H   0  0  0  0  0  0  0  0  0  0  0  0
    3.3095   -2.4861   30.5027 H   0  0  0  0  0  0  0  0  0  0  0  0
    1.7107   -1.9195   30.0186 H   0  0  0  0  0  0  0  0  0  0  0  0
    2.7247   -4.7041   30.2022 H   0  0  0  0  0  0  0  0  0  0  0  0
   -0.2432   -6.2789   29.4290 H   0  0  0  0  0  0  0  0  0  0  0  0
    1.3551   -6.5673   30.0236 H   0  0  0  0  0  0  0  0  0  0  0  0
   -1.9008   -7.8800   35.2273 H   0  0  0  0  0  0  0  0  0  0  0  0
   -0.4531   -6.4401   36.6227 H   0  0  0  0  0  0  0  0  0  0  0  0
    1.3866   -5.1750   35.6228 H   0  0  0  0  0  0  0  0  0  0  0  0
   -1.1246   -4.1404   29.1975 H   0  0  0  0  0  0  0  0  0  0  0  0
  1  2  1  0
  2  3  1  0
  2  4  1  0
  4  5  1  0
  5  6  1  0
  6  7  1  0
  7  8  1  0
  8  9  1  0
  9 10  1  0
 10 11  1  0
 11 12  1  0
  8 13  1  0
 13 14  2  0
 14 15  1  0
 15 16  2  0
 16 17  1  0
 17 18  1  0
 18 19  1  0
 19 20  2  3
 20 21  1  0
 21 22  1  0
 22 23  2  0
 23 24  1  0
 24 25  2  0
 25 26  1  0
 26 27  2  0
 27 28  1  0
 28 29  2  0
 29 30  1  0
 29 31  1  0
 20 32  1  0
 32 33  1  0
 33 34  2  0
 33 35  2  0
 33  6  1  0
 17 13  1  0
 30 22  1  0
 31 16  1  0
 30 25  1  0
  1 36  1  0
  1 37  1  0
  1 38  1  0
  2 39  1  0
  3 40  1  0
  3 41  1  0
  4 42  1  0
  5 43  1  0
  5 44  1  0
  6 45  1  0
  7 46  1  0
  7 47  1  0
  8 48  1  0
  9 49  1  0
  9 50  1  0
 10 51  1  0
 10 52  1  0
 11 53  1  0
 11 54  1  0
 12 55  1  0
 12 56  1  0
 18 57  1  0
 18 58  1  0
 19 59  1  0
 21 60  1  0
 21 61  1  0
 26 62  1  0
 27 63  1  0
 28 64  1  0
 32 65  1  0
M  END
>  <Energy>  (48) 
13.6376970299803

>  <compound_id>  (48) 
2360

>  <target_id>  (48) 
1

>  <reference_id>  (48) 
198

>  <inspiration_ids>  (48) 
[163, 198]

>  <energy_score>  (48) 
-198.48852936930342

>  <distance_score>  (48) 
1.1738047523924158

>  <path>  (48) 
/opt/xchem-fragalysis-2/maxwin/BulkDock/SCRATCH/505736/C2360-P198/C2360-P198.minimised.mol

>  <scratch_subdir>  (48) 
/opt/xchem-fragalysis-2/maxwin/BulkDock/SCRATCH/505736/C2360-P198

>  <fragmenstein_runtime>  (48) 
4.942161321640015

>  <fragmenstein_outcome>  (48) 
too moved

>  <fragmenstein_mode>  (48) 
expansion

>  <fragmenstein_error>  (48) 


$$$$
C2361-P163
     RDKit          3D

 61 65  0  0  0  0  0  0  0  0999 V2000
    2.9358    2.2288   30.4117 C   0  0  0  0  0  0  0  0  0  0  0  0
    1.7809    1.7410   31.2729 C   0  0  0  0  0  0  0  0  0  0  0  0
    1.8752    0.2276   31.5276 C   0  0  0  0  0  0  0  0  0  0  0  0
    0.7029   -0.3122   32.3666 C   0  0  0  0  0  0  0  0  0  0  0  0
   -0.7164   -0.2165   31.7714 C   0  0  0  0  0  0  0  0  0  0  0  0
   -0.7501   -0.0867   30.3195 N   0  0  0  0  0  0  0  0  0  0  0  0
   -1.3267   -1.2753   29.6209 C   0  0  0  0  0  0  0  0  0  0  0  0
   -1.2484   -1.1339   28.0937 C   0  0  0  0  0  0  0  0  0  0  0  0
   -1.9582   -0.0548   27.4164 N   0  0  0  0  0  0  0  0  0  0  0  0
   -1.6070    1.3078   27.6500 C   0  0  0  0  0  0  0  0  0  0  0  0
   -0.1333    1.6636   27.7183 C   0  0  0  0  0  0  0  0  0  0  0  0
   -2.1883    1.9486   26.4952 N   0  0  0  0  0  0  0  0  0  0  0  0
   -0.6539   -2.9511   30.0173 S   0  0  0  0  0  0  0  0  0  0  0  0
   -0.5858   -3.8215   28.8724 O   0  0  0  0  0  0  0  0  0  0  0  0
   -1.2082   -3.3908   31.2801 O   0  0  0  0  0  0  0  0  0  0  0  0
    0.9634   -2.5784   30.2663 N   0  0  0  0  0  0  0  0  0  0  0  0
    1.6588   -3.3471   31.3048 C   0  0  0  0  0  0  0  0  0  0  0  0
    1.6327   -4.8933   30.9659 C   0  0  0  0  0  0  0  0  0  0  0  0
    0.5366   -5.8029   31.4996 C   0  0  0  0  0  0  0  0  0  0  0  0
   -0.3309   -6.4789   30.7593 N   0  0  0  0  0  0  0  0  0  0  0  0
   -1.1477   -7.2221   31.5807 N   0  0  0  0  0  0  0  0  0  0  0  0
   -0.7526   -7.0199   32.8149 C   0  0  0  0  0  0  0  0  0  0  0  0
   -1.2189   -7.5159   34.0597 C   0  0  0  0  0  0  0  0  0  0  0  0
   -0.5439   -7.2414   35.1885 C   0  0  0  0  0  0  0  0  0  0  0  0
    0.6671   -6.4483   35.1595 C   0  0  0  0  0  0  0  0  0  0  0  0
    1.1027   -5.9442   33.9886 C   0  0  0  0  0  0  0  0  0  0  0  0
    0.3684   -6.1971   32.8208 N   0  0  0  0  0  0  0  0  0  0  0  0
    2.5545   -5.0136   33.9368 S   0  0  0  0  0  0  0  0  0  0  0  0
    1.7234   -3.5112   33.8192 C   0  0  0  0  0  0  0  0  0  0  0  0
    1.2834   -2.8506   34.8550 N   0  0  0  0  0  0  0  0  0  0  0  0
    0.7933   -1.6714   34.4005 N   0  0  0  0  0  0  0  0  0  0  0  0
    0.9619   -1.6123   33.0897 C   0  0  0  0  0  0  0  0  0  0  0  0
    1.4163   -2.8573   32.6557 N   0  0  0  0  0  0  0  0  0  0  0  0
    2.9295    1.7383   29.4331 H   0  0  0  0  0  0  0  0  0  0  0  0
    3.8977    2.0251   30.8928 H   0  0  0  0  0  0  0  0  0  0  0  0
    2.8583    3.3086   30.2507 H   0  0  0  0  0  0  0  0  0  0  0  0
    1.8011    2.2751   32.2302 H   0  0  0  0  0  0  0  0  0  0  0  0
    0.8394    2.0043   30.7827 H   0  0  0  0  0  0  0  0  0  0  0  0
    2.8175    0.0251   32.0545 H   0  0  0  0  0  0  0  0  0  0  0  0
    1.9520   -0.2931   30.5688 H   0  0  0  0  0  0  0  0  0  0  0  0
    0.6638    0.4037   33.2071 H   0  0  0  0  0  0  0  0  0  0  0  0
   -1.1538    0.7138   32.1612 H   0  0  0  0  0  0  0  0  0  0  0  0
   -1.3873   -0.9945   32.1527 H   0  0  0  0  0  0  0  0  0  0  0  0
   -1.3652    0.6897   30.0865 H   0  0  0  0  0  0  0  0  0  0  0  0
   -2.3551   -1.3357   29.9479 H   0  0  0  0  0  0  0  0  0  0  0  0
   -0.1968   -1.1345   27.7823 H   0  0  0  0  0  0  0  0  0  0  0  0
   -1.6924   -2.0371   27.6699 H   0  0  0  0  0  0  0  0  0  0  0  0
   -1.8499   -0.2297   26.4096 H   0  0  0  0  0  0  0  0  0  0  0  0
   -2.1149    1.6867   28.5398 H   0  0  0  0  0  0  0  0  0  0  0  0
    0.3790    1.4565   26.7755 H   0  0  0  0  0  0  0  0  0  0  0  0
   -0.0082    2.7339   27.9214 H   0  0  0  0  0  0  0  0  0  0  0  0
    0.4122    1.1246   28.4925 H   0  0  0  0  0  0  0  0  0  0  0  0
   -2.2325    2.9554   26.6635 H   0  0  0  0  0  0  0  0  0  0  0  0
   -3.1676    1.6603   26.4582 H   0  0  0  0  0  0  0  0  0  0  0  0
    1.4418   -2.5673   29.3630 H   0  0  0  0  0  0  0  0  0  0  0  0
    2.7138   -3.0672   31.1503 H   0  0  0  0  0  0  0  0  0  0  0  0
    2.5951   -5.3313   31.2525 H   0  0  0  0  0  0  0  0  0  0  0  0
    1.6327   -5.0029   29.8718 H   0  0  0  0  0  0  0  0  0  0  0  0
   -2.1014   -8.1404   34.0700 H   0  0  0  0  0  0  0  0  0  0  0  0
   -0.8719   -7.6323   36.1460 H   0  0  0  0  0  0  0  0  0  0  0  0
    1.1807   -6.2759   36.1019 H   0  0  0  0  0  0  0  0  0  0  0  0
  1  2  1  0
  2  3  1  0
  3  4  1  0
  4  5  1  0
  5  6  1  0
  6  7  1  0
  7  8  1  0
  8  9  1  0
  9 10  1  0
 10 11  1  0
 10 12  1  0
  7 13  1  0
 13 14  2  0
 13 15  2  0
 13 16  1  0
 16 17  1  0
 17 18  1  0
 18 19  1  0
 19 20  2  0
 20 21  1  0
 21 22  2  0
 22 23  1  0
 23 24  2  0
 24 25  1  0
 25 26  2  0
 26 27  1  0
 26 28  1  0
 28 29  1  0
 29 30  2  0
 30 31  1  0
 31 32  2  0
 32 33  1  0
 32  4  1  0
 33 17  1  0
 27 19  1  0
 33 29  1  0
 27 22  1  0
  1 34  1  0
  1 35  1  0
  1 36  1  0
  2 37  1  0
  2 38  1  0
  3 39  1  0
  3 40  1  0
  4 41  1  0
  5 42  1  0
  5 43  1  0
  6 44  1  0
  7 45  1  0
  8 46  1  0
  8 47  1  0
  9 48  1  0
 10 49  1  0
 11 50  1  0
 11 51  1  0
 11 52  1  0
 12 53  1  0
 12 54  1  0
 16 55  1  0
 17 56  1  0
 18 57  1  0
 18 58  1  0
 23 59  1  0
 24 60  1  0
 25 61  1  0
M  END
>  <Energy>  (49) 
22.346095386868861

>  <compound_id>  (49) 
2361

>  <target_id>  (49) 
1

>  <reference_id>  (49) 
163

>  <inspiration_ids>  (49) 
[163, 199]

>  <energy_score>  (49) 
-250.7930540852209

>  <distance_score>  (49) 
1.4534686420506007

>  <path>  (49) 
/opt/xchem-fragalysis-2/maxwin/BulkDock/SCRATCH/505736/C2361-P163/C2361-P163.minimised.mol

>  <scratch_subdir>  (49) 
/opt/xchem-fragalysis-2/maxwin/BulkDock/SCRATCH/505736/C2361-P163

>  <fragmenstein_runtime>  (49) 
3.400367498397827

>  <fragmenstein_outcome>  (49) 
too moved

>  <fragmenstein_mode>  (49) 
expansion

>  <fragmenstein_error>  (49) 


$$$$
C2361-P199
     RDKit          3D

 61 65  0  0  0  0  0  0  0  0999 V2000
    2.9563    2.2095   30.2913 C   0  0  0  0  0  0  0  0  0  0  0  0
    1.7094    1.7786   31.0483 C   0  0  0  0  0  0  0  0  0  0  0  0
    1.7820    0.2959   31.4419 C   0  0  0  0  0  0  0  0  0  0  0  0
    0.5352   -0.1807   32.2075 C   0  0  0  0  0  0  0  0  0  0  0  0
   -0.8217   -0.0899   31.4812 C   0  0  0  0  0  0  0  0  0  0  0  0
   -0.7362   -0.2238   30.0423 N   0  0  0  0  0  0  0  0  0  0  0  0
   -1.5560   -1.3287   29.4873 C   0  0  0  0  0  0  0  0  0  0  0  0
   -1.4894   -1.3188   27.9595 C   0  0  0  0  0  0  0  0  0  0  0  0
   -2.2100   -0.3254   27.1651 N   0  0  0  0  0  0  0  0  0  0  0  0
   -1.7865    1.0430   27.1054 C   0  0  0  0  0  0  0  0  0  0  0  0
   -2.6950    1.8833   27.9490 C   0  0  0  0  0  0  0  0  0  0  0  0
   -0.4346    1.2219   27.5389 N   0  0  0  0  0  0  0  0  0  0  0  0
   -0.8921   -3.0209   29.9832 S   0  0  0  0  0  0  0  0  0  0  0  0
   -0.8048   -3.9551   28.8881 O   0  0  0  0  0  0  0  0  0  0  0  0
   -1.4364   -3.4087   31.2669 O   0  0  0  0  0  0  0  0  0  0  0  0
    0.7205   -2.5985   30.2126 N   0  0  0  0  0  0  0  0  0  0  0  0
    1.4645   -3.2435   31.2836 C   0  0  0  0  0  0  0  0  0  0  0  0
    1.5558   -4.7811   31.0086 C   0  0  0  0  0  0  0  0  0  0  0  0
    0.5174   -5.7518   31.5319 C   0  0  0  0  0  0  0  0  0  0  0  0
   -0.2643   -6.5111   30.7784 N   0  0  0  0  0  0  0  0  0  0  0  0
   -1.0237   -7.3214   31.5870 N   0  0  0  0  0  0  0  0  0  0  0  0
   -0.6771   -7.0750   32.8284 C   0  0  0  0  0  0  0  0  0  0  0  0
   -1.1169   -7.6103   34.0643 C   0  0  0  0  0  0  0  0  0  0  0  0
   -0.4936   -7.2738   35.2054 C   0  0  0  0  0  0  0  0  0  0  0  0
    0.6297   -6.3603   35.1991 C   0  0  0  0  0  0  0  0  0  0  0  0
    1.0334   -5.8126   34.0362 C   0  0  0  0  0  0  0  0  0  0  0  0
    0.3533   -6.1429   32.8547 N   0  0  0  0  0  0  0  0  0  0  0  0
    2.4031   -4.7654   34.0083 S   0  0  0  0  0  0  0  0  0  0  0  0
    1.4803   -3.3266   33.8073 C   0  0  0  0  0  0  0  0  0  0  0  0
    1.0045   -2.6341   34.8062 N   0  0  0  0  0  0  0  0  0  0  0  0
    0.5181   -1.4740   34.2959 N   0  0  0  0  0  0  0  0  0  0  0  0
    0.7286   -1.4596   32.9899 C   0  0  0  0  0  0  0  0  0  0  0  0
    1.1893   -2.7203   32.6135 N   0  0  0  0  0  0  0  0  0  0  0  0
    3.0695    1.6365   29.3653 H   0  0  0  0  0  0  0  0  0  0  0  0
    3.8550    2.0636   30.8989 H   0  0  0  0  0  0  0  0  0  0  0  0
    2.8923    3.2701   30.0286 H   0  0  0  0  0  0  0  0  0  0  0  0
    1.6080    2.3946   31.9495 H   0  0  0  0  0  0  0  0  0  0  0  0
    0.8344    1.9787   30.4232 H   0  0  0  0  0  0  0  0  0  0  0  0
    2.6689    0.1477   32.0727 H   0  0  0  0  0  0  0  0  0  0  0  0
    1.9491   -0.3101   30.5456 H   0  0  0  0  0  0  0  0  0  0  0  0
    0.4353    0.5679   33.0131 H   0  0  0  0  0  0  0  0  0  0  0  0
   -1.2164    0.9084   31.6712 H   0  0  0  0  0  0  0  0  0  0  0  0
   -1.5574   -0.7670   31.9322 H   0  0  0  0  0  0  0  0  0  0  0  0
   -0.9034    0.6339   29.5112 H   0  0  0  0  0  0  0  0  0  0  0  0
   -2.5949   -1.2833   29.8323 H   0  0  0  0  0  0  0  0  0  0  0  0
   -0.4402   -1.3753   27.6472 H   0  0  0  0  0  0  0  0  0  0  0  0
   -1.9304   -2.2529   27.6322 H   0  0  0  0  0  0  0  0  0  0  0  0
   -2.1947   -0.7047   26.2059 H   0  0  0  0  0  0  0  0  0  0  0  0
   -1.8788    1.4039   26.0759 H   0  0  0  0  0  0  0  0  0  0  0  0
   -2.3180    2.9050   28.0699 H   0  0  0  0  0  0  0  0  0  0  0  0
   -3.6743    1.9606   27.4638 H   0  0  0  0  0  0  0  0  0  0  0  0
   -2.8431    1.4316   28.9286 H   0  0  0  0  0  0  0  0  0  0  0  0
   -0.1481    2.1831   27.3616 H   0  0  0  0  0  0  0  0  0  0  0  0
    0.1655    0.6262   26.9788 H   0  0  0  0  0  0  0  0  0  0  0  0
    1.1962   -2.5327   29.3128 H   0  0  0  0  0  0  0  0  0  0  0  0
    2.4948   -2.8880   31.1169 H   0  0  0  0  0  0  0  0  0  0  0  0
    2.5290   -5.1101   31.3645 H   0  0  0  0  0  0  0  0  0  0  0  0
    1.6185   -4.9368   29.9217 H   0  0  0  0  0  0  0  0  0  0  0  0
   -1.9411   -8.3093   34.0618 H   0  0  0  0  0  0  0  0  0  0  0  0
   -0.8017   -7.7079   36.1523 H   0  0  0  0  0  0  0  0  0  0  0  0
    1.1090   -6.1454   36.1503 H   0  0  0  0  0  0  0  0  0  0  0  0
  1  2  1  0
  2  3  1  0
  3  4  1  0
  4  5  1  0
  5  6  1  0
  6  7  1  0
  7  8  1  0
  8  9  1  0
  9 10  1  0
 10 11  1  0
 10 12  1  0
  7 13  1  0
 13 14  2  0
 13 15  2  0
 13 16  1  0
 16 17  1  0
 17 18  1  0
 18 19  1  0
 19 20  2  0
 20 21  1  0
 21 22  2  0
 22 23  1  0
 23 24  2  0
 24 25  1  0
 25 26  2  0
 26 27  1  0
 26 28  1  0
 28 29  1  0
 29 30  2  0
 30 31  1  0
 31 32  2  0
 32 33  1  0
 32  4  1  0
 33 17  1  0
 27 19  1  0
 33 29  1  0
 27 22  1  0
  1 34  1  0
  1 35  1  0
  1 36  1  0
  2 37  1  0
  2 38  1  0
  3 39  1  0
  3 40  1  0
  4 41  1  0
  5 42  1  0
  5 43  1  0
  6 44  1  0
  7 45  1  0
  8 46  1  0
  8 47  1  0
  9 48  1  0
 10 49  1  0
 11 50  1  0
 11 51  1  0
 11 52  1  0
 12 53  1  0
 12 54  1  0
 16 55  1  0
 17 56  1  0
 18 57  1  0
 18 58  1  0
 23 59  1  0
 24 60  1  0
 25 61  1  0
M  END
>  <Energy>  (50) 
29.397331801610171

>  <compound_id>  (50) 
2361

>  <target_id>  (50) 
1

>  <reference_id>  (50) 
199

>  <inspiration_ids>  (50) 
[163, 199]

>  <energy_score>  (50) 
-243.7418176704793

>  <distance_score>  (50) 
1.4972967724804467

>  <path>  (50) 
/opt/xchem-fragalysis-2/maxwin/BulkDock/SCRATCH/505736/C2361-P199/C2361-P199.minimised.mol

>  <scratch_subdir>  (50) 
/opt/xchem-fragalysis-2/maxwin/BulkDock/SCRATCH/505736/C2361-P199

>  <fragmenstein_runtime>  (50) 
3.2394278049468994

>  <fragmenstein_outcome>  (50) 
too moved

>  <fragmenstein_mode>  (50) 
expansion

>  <fragmenstein_error>  (50) 


$$$$
C287-P163
     RDKit          3D

 66 70  0  0  0  0  0  0  0  0999 V2000
    1.9109   -2.0491   29.3145 C   0  0  0  0  0  0  0  0  0  0  0  0
    3.0035   -2.1732   30.0755 C   0  0  0  0  0  0  0  0  0  0  0  0
    3.2044   -2.1847   31.5648 C   0  0  0  0  0  0  0  0  0  0  0  0
    2.0622   -2.2204   32.4659 N   0  0  0  0  0  0  0  0  0  0  0  0
    1.7987   -3.1676   33.4308 C   0  0  0  0  0  0  0  0  0  0  0  0
    2.5398   -4.7310   33.4925 S   0  0  0  0  0  0  0  0  0  0  0  0
    1.2433   -5.7247   34.2200 C   0  0  0  0  0  0  0  0  0  0  0  0
    1.3098   -6.0251   35.5856 C   0  0  0  0  0  0  0  0  0  0  0  0
    0.3911   -6.9021   36.1862 C   0  0  0  0  0  0  0  0  0  0  0  0
   -0.5913   -7.5247   35.4250 C   0  0  0  0  0  0  0  0  0  0  0  0
   -0.6472   -7.2433   34.0807 C   0  0  0  0  0  0  0  0  0  0  0  0
    0.2207   -6.3306   33.4923 C   0  0  0  0  0  0  0  0  0  0  0  0
   -0.2426   -6.1393   32.0711 C   0  0  0  0  0  0  0  0  0  0  0  0
   -0.8280   -4.7197   31.9993 C   0  0  0  0  0  0  0  0  0  0  0  0
   -0.7830   -3.9609   30.6915 C   0  0  0  0  0  0  0  0  0  0  0  0
   -0.0836   -4.6969   29.5727 C   0  0  0  0  0  0  0  0  0  0  0  0
    1.1904   -5.3585   30.0551 C   0  0  0  0  0  0  0  0  0  0  0  0
    2.0261   -5.9477   28.9471 C   0  0  0  0  0  0  0  0  0  0  0  0
    3.0213   -5.3203   28.3065 C   0  0  0  0  0  0  0  0  0  0  0  0
    3.8790   -6.0844   27.3851 C   0  0  0  0  0  0  0  0  0  0  0  0
    3.5821   -7.2362   27.0796 O   0  0  0  0  0  0  0  0  0  0  0  0
    5.0276   -5.5015   26.9776 O   0  0  0  0  0  0  0  0  0  0  0  0
    5.4352   -4.1487   27.2758 C   0  0  0  0  0  0  0  0  0  0  0  0
    6.0294   -4.0437   28.6734 C   0  0  0  0  0  0  0  0  0  0  0  0
    0.8491   -6.4619   31.0563 C   0  0  0  0  0  0  0  0  0  0  0  0
   -1.2945   -7.2066   31.8759 N   0  0  0  0  0  0  0  0  0  0  0  0
   -1.5760   -7.7470   33.1654 N   0  0  0  0  0  0  0  0  0  0  0  0
    0.8776   -2.7196   34.2491 N   0  0  0  0  0  0  0  0  0  0  0  0
    0.4518   -1.5060   33.7761 N   0  0  0  0  0  0  0  0  0  0  0  0
    1.1654   -1.1953   32.7114 C   0  0  0  0  0  0  0  0  0  0  0  0
    0.9551   -0.0204   31.8848 C   0  0  0  0  0  0  0  0  0  0  0  0
    1.9291    0.9605   31.6977 C   0  0  0  0  0  0  0  0  0  0  0  0
    1.6844    2.0141   30.8188 C   0  0  0  0  0  0  0  0  0  0  0  0
    0.4701    2.0485   30.1555 C   0  0  0  0  0  0  0  0  0  0  0  0
   -0.5049    1.1326   30.3392 N   0  0  0  0  0  0  0  0  0  0  0  0
   -0.2531    0.1364   31.2143 C   0  0  0  0  0  0  0  0  0  0  0  0
    1.9859   -2.0159   28.2294 H   0  0  0  0  0  0  0  0  0  0  0  0
    0.9161   -1.8962   29.7017 H   0  0  0  0  0  0  0  0  0  0  0  0
    3.9483   -2.2262   29.5360 H   0  0  0  0  0  0  0  0  0  0  0  0
    3.7883   -1.3005   31.8474 H   0  0  0  0  0  0  0  0  0  0  0  0
    3.8484   -3.0384   31.7969 H   0  0  0  0  0  0  0  0  0  0  0  0
    2.0800   -5.5756   36.2105 H   0  0  0  0  0  0  0  0  0  0  0  0
    0.4608   -7.1088   37.2527 H   0  0  0  0  0  0  0  0  0  0  0  0
   -1.2898   -8.2143   35.8796 H   0  0  0  0  0  0  0  0  0  0  0  0
   -1.8285   -4.7010   32.4066 H   0  0  0  0  0  0  0  0  0  0  0  0
   -0.3468   -4.0744   32.7241 H   0  0  0  0  0  0  0  0  0  0  0  0
   -1.7865   -3.6561   30.3828 H   0  0  0  0  0  0  0  0  0  0  0  0
   -0.2746   -3.0173   30.8844 H   0  0  0  0  0  0  0  0  0  0  0  0
   -0.7586   -5.4704   29.2253 H   0  0  0  0  0  0  0  0  0  0  0  0
    0.0910   -4.0213   28.7298 H   0  0  0  0  0  0  0  0  0  0  0  0
    1.7986   -4.6154   30.5747 H   0  0  0  0  0  0  0  0  0  0  0  0
    1.8531   -6.9936   28.7178 H   0  0  0  0  0  0  0  0  0  0  0  0
    3.2292   -4.2884   28.5021 H   0  0  0  0  0  0  0  0  0  0  0  0
    6.2024   -3.8869   26.5391 H   0  0  0  0  0  0  0  0  0  0  0  0
    4.6059   -3.4515   27.1190 H   0  0  0  0  0  0  0  0  0  0  0  0
    5.3300   -4.3566   29.4522 H   0  0  0  0  0  0  0  0  0  0  0  0
    6.8995   -4.7036   28.7588 H   0  0  0  0  0  0  0  0  0  0  0  0
    6.3505   -3.0186   28.8788 H   0  0  0  0  0  0  0  0  0  0  0  0
    1.7635   -6.7085   31.5938 H   0  0  0  0  0  0  0  0  0  0  0  0
    0.5838   -7.3764   30.5048 H   0  0  0  0  0  0  0  0  0  0  0  0
   -2.1471   -6.7475   31.5661 H   0  0  0  0  0  0  0  0  0  0  0  0
   -1.6590   -8.7662   33.2521 H   0  0  0  0  0  0  0  0  0  0  0  0
    2.8744    0.9204   32.2307 H   0  0  0  0  0  0  0  0  0  0  0  0
    2.4222    2.7914   30.6528 H   0  0  0  0  0  0  0  0  0  0  0  0
    0.2331    2.8440   29.4524 H   0  0  0  0  0  0  0  0  0  0  0  0
   -1.0660   -0.5748   31.3392 H   0  0  0  0  0  0  0  0  0  0  0  0
  1  2  2  0
  2  3  1  0
  3  4  1  0
  4  5  1  0
  5  6  1  0
  6  7  1  0
  7  8  2  0
  8  9  1  0
  9 10  2  0
 10 11  1  0
 11 12  2  0
 12 13  1  0
 13 14  1  0
 14 15  1  0
 15 16  1  0
 16 17  1  0
 17 18  1  0
 18 19  2  3
 19 20  1  0
 20 21  2  0
 20 22  1  0
 22 23  1  0
 23 24  1  0
 17 25  1  0
 13 26  1  0
 26 27  1  0
  5 28  2  0
 28 29  1  0
 29 30  2  0
 30 31  1  0
 31 32  2  0
 32 33  1  0
 33 34  2  0
 34 35  1  0
 35 36  2  0
 30  4  1  0
 36 31  1  0
 12  7  1  0
 25 13  1  0
 27 11  1  0
  1 37  1  0
  1 38  1  0
  2 39  1  0
  3 40  1  0
  3 41  1  0
  8 42  1  0
  9 43  1  0
 10 44  1  0
 14 45  1  0
 14 46  1  0
 15 47  1  0
 15 48  1  0
 16 49  1  0
 16 50  1  0
 17 51  1  0
 18 52  1  0
 19 53  1  0
 23 54  1  0
 23 55  1  0
 24 56  1  0
 24 57  1  0
 24 58  1  0
 25 59  1  0
 25 60  1  0
 26 61  1  0
 27 62  1  0
 32 63  1  0
 33 64  1  0
 34 65  1  0
 36 66  1  0
M  END
>  <Energy>  (51) 
143.57262533752095

>  <compound_id>  (51) 
287

>  <target_id>  (51) 
1

>  <reference_id>  (51) 
163

>  <inspiration_ids>  (51) 
[163, 200]

>  <energy_score>  (51) 
-53.71391028547751

>  <distance_score>  (51) 
1.1412310173999176

>  <path>  (51) 
/opt/xchem-fragalysis-2/maxwin/BulkDock/SCRATCH/505736/C287-P163/C287-P163.minimised.mol

>  <scratch_subdir>  (51) 
/opt/xchem-fragalysis-2/maxwin/BulkDock/SCRATCH/505736/C287-P163

>  <fragmenstein_runtime>  (51) 
5.691613435745239

>  <fragmenstein_outcome>  (51) 
too moved

>  <fragmenstein_mode>  (51) 
expansion

>  <fragmenstein_error>  (51) 


$$$$
C287-P200
     RDKit          3D

 66 70  0  0  0  0  0  0  0  0999 V2000
    3.0552   -2.6176   29.0445 C   0  0  0  0  0  0  0  0  0  0  0  0
    2.4970   -2.0075   30.0910 C   0  0  0  0  0  0  0  0  0  0  0  0
    2.9928   -2.0966   31.5050 C   0  0  0  0  0  0  0  0  0  0  0  0
    1.9432   -2.1831   32.5124 N   0  0  0  0  0  0  0  0  0  0  0  0
    1.6643   -3.2113   33.3760 C   0  0  0  0  0  0  0  0  0  0  0  0
    2.4362   -4.7584   33.3248 S   0  0  0  0  0  0  0  0  0  0  0  0
    1.1443   -5.7988   33.9730 C   0  0  0  0  0  0  0  0  0  0  0  0
    1.1450   -6.0936   35.3438 C   0  0  0  0  0  0  0  0  0  0  0  0
    0.1850   -6.9464   35.9085 C   0  0  0  0  0  0  0  0  0  0  0  0
   -0.7786   -7.5465   35.1068 C   0  0  0  0  0  0  0  0  0  0  0  0
   -0.7563   -7.2885   33.7534 C   0  0  0  0  0  0  0  0  0  0  0  0
    0.1612   -6.4005   33.1918 C   0  0  0  0  0  0  0  0  0  0  0  0
   -0.2497   -6.1970   31.7449 C   0  0  0  0  0  0  0  0  0  0  0  0
   -0.9017   -4.7992   31.6805 C   0  0  0  0  0  0  0  0  0  0  0  0
   -0.5663   -3.8375   30.5522 C   0  0  0  0  0  0  0  0  0  0  0  0
    0.1054   -4.4954   29.3740 C   0  0  0  0  0  0  0  0  0  0  0  0
    1.3018   -5.2806   29.8704 C   0  0  0  0  0  0  0  0  0  0  0  0
    2.3318   -5.7508   28.8806 C   0  0  0  0  0  0  0  0  0  0  0  0
    2.5349   -5.4161   27.5988 C   0  0  0  0  0  0  0  0  0  0  0  0
    3.8513   -5.8311   27.0952 C   0  0  0  0  0  0  0  0  0  0  0  0
    4.2891   -6.9654   27.2123 O   0  0  0  0  0  0  0  0  0  0  0  0
    4.4572   -4.7329   26.5995 O   0  0  0  0  0  0  0  0  0  0  0  0
    5.8865   -4.7617   26.6465 C   0  0  0  0  0  0  0  0  0  0  0  0
    6.3318   -4.2257   28.0063 C   0  0  0  0  0  0  0  0  0  0  0  0
    0.8675   -6.4516   30.7386 C   0  0  0  0  0  0  0  0  0  0  0  0
   -1.2635   -7.3170   31.5124 N   0  0  0  0  0  0  0  0  0  0  0  0
   -1.6796   -7.7337   32.8064 N   0  0  0  0  0  0  0  0  0  0  0  0
    0.7171   -2.8430   34.2053 N   0  0  0  0  0  0  0  0  0  0  0  0
    0.3000   -1.5862   33.8409 N   0  0  0  0  0  0  0  0  0  0  0  0
    1.0253   -1.1910   32.8149 C   0  0  0  0  0  0  0  0  0  0  0  0
    0.8114    0.0086   32.0258 C   0  0  0  0  0  0  0  0  0  0  0  0
    1.7162    1.0704   32.0172 C   0  0  0  0  0  0  0  0  0  0  0  0
    1.5377    2.1169   31.1141 C   0  0  0  0  0  0  0  0  0  0  0  0
    0.4653    2.0564   30.2407 C   0  0  0  0  0  0  0  0  0  0  0  0
   -0.4354    1.0488   30.2360 N   0  0  0  0  0  0  0  0  0  0  0  0
   -0.2648    0.0678   31.1474 C   0  0  0  0  0  0  0  0  0  0  0  0
    2.6676   -2.4602   28.0396 H   0  0  0  0  0  0  0  0  0  0  0  0
    3.9255   -3.2505   29.1577 H   0  0  0  0  0  0  0  0  0  0  0  0
    1.6565   -1.3572   29.8663 H   0  0  0  0  0  0  0  0  0  0  0  0
    3.5686   -1.1948   31.7442 H   0  0  0  0  0  0  0  0  0  0  0  0
    3.6772   -2.9406   31.6293 H   0  0  0  0  0  0  0  0  0  0  0  0
    1.8844   -5.6397   36.0023 H   0  0  0  0  0  0  0  0  0  0  0  0
    0.1964   -7.1370   36.9798 H   0  0  0  0  0  0  0  0  0  0  0  0
   -1.5244   -8.1995   35.5418 H   0  0  0  0  0  0  0  0  0  0  0  0
   -1.9545   -4.9597   31.6017 H   0  0  0  0  0  0  0  0  0  0  0  0
   -0.8336   -4.2518   32.6269 H   0  0  0  0  0  0  0  0  0  0  0  0
   -1.4735   -3.3171   30.2209 H   0  0  0  0  0  0  0  0  0  0  0  0
    0.0783   -3.0519   30.9345 H   0  0  0  0  0  0  0  0  0  0  0  0
   -0.6275   -5.1501   28.9157 H   0  0  0  0  0  0  0  0  0  0  0  0
    0.3791   -3.7355   28.6360 H   0  0  0  0  0  0  0  0  0  0  0  0
    1.8654   -4.6175   30.5294 H   0  0  0  0  0  0  0  0  0  0  0  0
    3.1383   -6.3079   29.3516 H   0  0  0  0  0  0  0  0  0  0  0  0
    1.9384   -4.7211   27.0273 H   0  0  0  0  0  0  0  0  0  0  0  0
    6.2826   -5.7667   26.4638 H   0  0  0  0  0  0  0  0  0  0  0  0
    6.2555   -4.1095   25.8493 H   0  0  0  0  0  0  0  0  0  0  0  0
    5.9047   -4.8140   28.8244 H   0  0  0  0  0  0  0  0  0  0  0  0
    7.4224   -4.2523   28.0864 H   0  0  0  0  0  0  0  0  0  0  0  0
    6.0034   -3.1901   28.1346 H   0  0  0  0  0  0  0  0  0  0  0  0
    1.7317   -6.7587   31.3203 H   0  0  0  0  0  0  0  0  0  0  0  0
    0.6378   -7.2907   30.0678 H   0  0  0  0  0  0  0  0  0  0  0  0
   -0.7642   -8.1100   31.1020 H   0  0  0  0  0  0  0  0  0  0  0  0
   -2.0136   -8.6889   32.9544 H   0  0  0  0  0  0  0  0  0  0  0  0
    2.5635    1.0862   32.6976 H   0  0  0  0  0  0  0  0  0  0  0  0
    2.2217    2.9583   31.0857 H   0  0  0  0  0  0  0  0  0  0  0  0
    0.2826    2.8461   29.5150 H   0  0  0  0  0  0  0  0  0  0  0  0
   -1.0135   -0.7196   31.1141 H   0  0  0  0  0  0  0  0  0  0  0  0
  1  2  2  0
  2  3  1  0
  3  4  1  0
  4  5  1  0
  5  6  1  0
  6  7  1  0
  7  8  2  0
  8  9  1  0
  9 10  2  0
 10 11  1  0
 11 12  2  0
 12 13  1  0
 13 14  1  0
 14 15  1  0
 15 16  1  0
 16 17  1  0
 17 18  1  0
 18 19  2  3
 19 20  1  0
 20 21  2  0
 20 22  1  0
 22 23  1  0
 23 24  1  0
 17 25  1  0
 13 26  1  0
 26 27  1  0
  5 28  2  0
 28 29  1  0
 29 30  2  0
 30 31  1  0
 31 32  2  0
 32 33  1  0
 33 34  2  0
 34 35  1  0
 35 36  2  0
 30  4  1  0
 36 31  1  0
 12  7  1  0
 25 13  1  0
 27 11  1  0
  1 37  1  0
  1 38  1  0
  2 39  1  0
  3 40  1  0
  3 41  1  0
  8 42  1  0
  9 43  1  0
 10 44  1  0
 14 45  1  0
 14 46  1  0
 15 47  1  0
 15 48  1  0
 16 49  1  0
 16 50  1  0
 17 51  1  0
 18 52  1  0
 19 53  1  0
 23 54  1  0
 23 55  1  0
 24 56  1  0
 24 57  1  0
 24 58  1  0
 25 59  1  0
 25 60  1  0
 26 61  1  0
 27 62  1  0
 32 63  1  0
 33 64  1  0
 34 65  1  0
 36 66  1  0
M  END
>  <Energy>  (52) 
136.38026157491632

>  <compound_id>  (52) 
287

>  <target_id>  (52) 
1

>  <reference_id>  (52) 
200

>  <inspiration_ids>  (52) 
[163, 200]

>  <energy_score>  (52) 
-60.906274048080036

>  <distance_score>  (52) 
1.1339833416619922

>  <path>  (52) 
/opt/xchem-fragalysis-2/maxwin/BulkDock/SCRATCH/505736/C287-P200/C287-P200.minimised.mol

>  <scratch_subdir>  (52) 
/opt/xchem-fragalysis-2/maxwin/BulkDock/SCRATCH/505736/C287-P200

>  <fragmenstein_runtime>  (52) 
3.781130075454712

>  <fragmenstein_outcome>  (52) 
too moved

>  <fragmenstein_mode>  (52) 
expansion

>  <fragmenstein_error>  (52) 


$$$$
C287-P163
     RDKit          3D

 66 70  0  0  0  0  0  0  0  0999 V2000
    2.8225   -2.3471   28.8759 C   0  0  0  0  0  0  0  0  0  0  0  0
    2.2643   -1.9911   30.0350 C   0  0  0  0  0  0  0  0  0  0  0  0
    2.8983   -2.0735   31.3968 C   0  0  0  0  0  0  0  0  0  0  0  0
    1.9380   -2.1356   32.4955 N   0  0  0  0  0  0  0  0  0  0  0  0
    1.6860   -3.1620   33.3708 C   0  0  0  0  0  0  0  0  0  0  0  0
    2.4648   -4.7053   33.3177 S   0  0  0  0  0  0  0  0  0  0  0  0
    1.1899   -5.7428   34.0046 C   0  0  0  0  0  0  0  0  0  0  0  0
    1.2109   -6.0165   35.3797 C   0  0  0  0  0  0  0  0  0  0  0  0
    0.2654   -6.8685   35.9724 C   0  0  0  0  0  0  0  0  0  0  0  0
   -0.7044   -7.4895   35.1956 C   0  0  0  0  0  0  0  0  0  0  0  0
   -0.7029   -7.2496   33.8394 C   0  0  0  0  0  0  0  0  0  0  0  0
    0.2008   -6.3634   33.2489 C   0  0  0  0  0  0  0  0  0  0  0  0
   -0.2329   -6.1920   31.8075 C   0  0  0  0  0  0  0  0  0  0  0  0
   -0.9520   -4.8307   31.7349 C   0  0  0  0  0  0  0  0  0  0  0  0
   -0.6158   -3.8241   30.6515 C   0  0  0  0  0  0  0  0  0  0  0  0
    0.0650   -4.4448   29.4582 C   0  0  0  0  0  0  0  0  0  0  0  0
    1.2819   -5.2152   29.9331 C   0  0  0  0  0  0  0  0  0  0  0  0
    2.2366   -5.6590   28.8525 C   0  0  0  0  0  0  0  0  0  0  0  0
    3.5645   -5.5637   29.0123 C   0  0  0  0  0  0  0  0  0  0  0  0
    4.4986   -6.1831   28.0612 C   0  0  0  0  0  0  0  0  0  0  0  0
    4.1249   -7.0283   27.2599 O   0  0  0  0  0  0  0  0  0  0  0  0
    5.7845   -5.8050   28.2292 O   0  0  0  0  0  0  0  0  0  0  0  0
    6.1123   -4.4040   28.2215 C   0  0  0  0  0  0  0  0  0  0  0  0
    6.3489   -3.8731   29.6275 C   0  0  0  0  0  0  0  0  0  0  0  0
    0.8734   -6.4102   30.7815 C   0  0  0  0  0  0  0  0  0  0  0  0
   -1.2104   -7.3516   31.6060 N   0  0  0  0  0  0  0  0  0  0  0  0
   -1.6335   -7.7258   32.9119 N   0  0  0  0  0  0  0  0  0  0  0  0
    0.7609   -2.7945   34.2245 N   0  0  0  0  0  0  0  0  0  0  0  0
    0.3464   -1.5314   33.8838 N   0  0  0  0  0  0  0  0  0  0  0  0
    1.0476   -1.1320   32.8433 C   0  0  0  0  0  0  0  0  0  0  0  0
    0.8242    0.0770   32.0709 C   0  0  0  0  0  0  0  0  0  0  0  0
    1.7835    1.0854   31.9675 C   0  0  0  0  0  0  0  0  0  0  0  0
    1.5914    2.1253   31.0612 C   0  0  0  0  0  0  0  0  0  0  0  0
    0.4458    2.1148   30.2853 C   0  0  0  0  0  0  0  0  0  0  0  0
   -0.5158    1.1708   30.3880 N   0  0  0  0  0  0  0  0  0  0  0  0
   -0.3223    0.1898   31.2932 C   0  0  0  0  0  0  0  0  0  0  0  0
    3.8393   -2.6988   28.8179 H   0  0  0  0  0  0  0  0  0  0  0  0
    2.2773   -2.2194   27.9435 H   0  0  0  0  0  0  0  0  0  0  0  0
    1.2620   -1.5778   29.9523 H   0  0  0  0  0  0  0  0  0  0  0  0
    3.5099   -1.1826   31.5770 H   0  0  0  0  0  0  0  0  0  0  0  0
    3.5660   -2.9356   31.4632 H   0  0  0  0  0  0  0  0  0  0  0  0
    1.9553   -5.5467   36.0212 H   0  0  0  0  0  0  0  0  0  0  0  0
    0.2933   -7.0416   37.0465 H   0  0  0  0  0  0  0  0  0  0  0  0
   -1.4372   -8.1442   35.6493 H   0  0  0  0  0  0  0  0  0  0  0  0
   -1.9702   -5.0650   31.5366 H   0  0  0  0  0  0  0  0  0  0  0  0
   -0.9991   -4.3104   32.6997 H   0  0  0  0  0  0  0  0  0  0  0  0
   -1.5264   -3.3039   30.3287 H   0  0  0  0  0  0  0  0  0  0  0  0
    0.0096   -3.0500   31.0783 H   0  0  0  0  0  0  0  0  0  0  0  0
   -0.6597   -5.1021   28.9916 H   0  0  0  0  0  0  0  0  0  0  0  0
    0.3193   -3.6779   28.7216 H   0  0  0  0  0  0  0  0  0  0  0  0
    1.8427   -4.5480   30.5865 H   0  0  0  0  0  0  0  0  0  0  0  0
    1.8697   -6.1197   27.9503 H   0  0  0  0  0  0  0  0  0  0  0  0
    3.9730   -5.1474   29.9175 H   0  0  0  0  0  0  0  0  0  0  0  0
    7.0395   -4.3099   27.6458 H   0  0  0  0  0  0  0  0  0  0  0  0
    5.3521   -3.8273   27.6855 H   0  0  0  0  0  0  0  0  0  0  0  0
    7.0450   -4.5239   30.1671 H   0  0  0  0  0  0  0  0  0  0  0  0
    5.4430   -3.8127   30.2277 H   0  0  0  0  0  0  0  0  0  0  0  0
    6.7769   -2.8669   29.5811 H   0  0  0  0  0  0  0  0  0  0  0  0
    1.7501   -6.7195   31.3426 H   0  0  0  0  0  0  0  0  0  0  0  0
    0.6370   -7.2384   30.1005 H   0  0  0  0  0  0  0  0  0  0  0  0
   -0.6848   -8.1452   31.2306 H   0  0  0  0  0  0  0  0  0  0  0  0
   -1.9309   -8.6888   33.0913 H   0  0  0  0  0  0  0  0  0  0  0  0
    2.6863    1.0609   32.5719 H   0  0  0  0  0  0  0  0  0  0  0  0
    2.3210    2.9204   30.9525 H   0  0  0  0  0  0  0  0  0  0  0  0
    0.2537    2.8953   29.5521 H   0  0  0  0  0  0  0  0  0  0  0  0
   -1.1134   -0.5550   31.3357 H   0  0  0  0  0  0  0  0  0  0  0  0
  1  2  2  0
  2  3  1  0
  3  4  1  0
  4  5  1  0
  5  6  1  0
  6  7  1  0
  7  8  2  0
  8  9  1  0
  9 10  2  0
 10 11  1  0
 11 12  2  0
 12 13  1  0
 13 14  1  0
 14 15  1  0
 15 16  1  0
 16 17  1  0
 17 18  1  0
 18 19  2  3
 19 20  1  0
 20 21  2  0
 20 22  1  0
 22 23  1  0
 23 24  1  0
 17 25  1  0
 13 26  1  0
 26 27  1  0
  5 28  2  0
 28 29  1  0
 29 30  2  0
 30 31  1  0
 31 32  2  0
 32 33  1  0
 33 34  2  0
 34 35  1  0
 35 36  2  0
 30  4  1  0
 36 31  1  0
 12  7  1  0
 25 13  1  0
 27 11  1  0
  1 37  1  0
  1 38  1  0
  2 39  1  0
  3 40  1  0
  3 41  1  0
  8 42  1  0
  9 43  1  0
 10 44  1  0
 14 45  1  0
 14 46  1  0
 15 47  1  0
 15 48  1  0
 16 49  1  0
 16 50  1  0
 17 51  1  0
 18 52  1  0
 19 53  1  0
 23 54  1  0
 23 55  1  0
 24 56  1  0
 24 57  1  0
 24 58  1  0
 25 59  1  0
 25 60  1  0
 26 61  1  0
 27 62  1  0
 32 63  1  0
 33 64  1  0
 34 65  1  0
 36 66  1  0
M  END
>  <Energy>  (53) 
146.38188908927148

>  <compound_id>  (53) 
287

>  <target_id>  (53) 
1

>  <reference_id>  (53) 
163

>  <inspiration_ids>  (53) 
[163, 201]

>  <energy_score>  (53) 
-50.9046465337278

>  <distance_score>  (53) 
1.1398437042519118

>  <path>  (53) 
/opt/xchem-fragalysis-2/maxwin/BulkDock/SCRATCH/505736/C287-P163/C287-P163.minimised.mol

>  <scratch_subdir>  (53) 
/opt/xchem-fragalysis-2/maxwin/BulkDock/SCRATCH/505736/C287-P163

>  <fragmenstein_runtime>  (53) 
5.917022943496704

>  <fragmenstein_outcome>  (53) 
too moved

>  <fragmenstein_mode>  (53) 
expansion

>  <fragmenstein_error>  (53) 


$$$$
C287-P201
     RDKit          3D

 66 70  0  0  0  0  0  0  0  0999 V2000
    2.9476   -2.8531   29.2107 C   0  0  0  0  0  0  0  0  0  0  0  0
    2.6808   -1.9825   30.1817 C   0  0  0  0  0  0  0  0  0  0  0  0
    3.1586   -2.0944   31.5959 C   0  0  0  0  0  0  0  0  0  0  0  0
    2.0955   -2.2207   32.5787 N   0  0  0  0  0  0  0  0  0  0  0  0
    1.7876   -3.3009   33.3642 C   0  0  0  0  0  0  0  0  0  0  0  0
    2.5025   -4.8632   33.1488 S   0  0  0  0  0  0  0  0  0  0  0  0
    1.2886   -5.9035   33.9162 C   0  0  0  0  0  0  0  0  0  0  0  0
    1.4546   -6.1743   35.2871 C   0  0  0  0  0  0  0  0  0  0  0  0
    0.5880   -7.0264   35.9821 C   0  0  0  0  0  0  0  0  0  0  0  0
   -0.4510   -7.6490   35.3128 C   0  0  0  0  0  0  0  0  0  0  0  0
   -0.6010   -7.3939   33.9644 C   0  0  0  0  0  0  0  0  0  0  0  0
    0.2279   -6.5161   33.2584 C   0  0  0  0  0  0  0  0  0  0  0  0
   -0.3957   -6.3380   31.8871 C   0  0  0  0  0  0  0  0  0  0  0  0
   -0.9772   -4.9059   31.8455 C   0  0  0  0  0  0  0  0  0  0  0  0
   -0.4824   -3.9143   30.7994 C   0  0  0  0  0  0  0  0  0  0  0  0
    0.0453   -4.5512   29.5356 C   0  0  0  0  0  0  0  0  0  0  0  0
    1.0902   -5.5907   29.9089 C   0  0  0  0  0  0  0  0  0  0  0  0
    2.0174   -6.1024   28.8417 C   0  0  0  0  0  0  0  0  0  0  0  0
    2.3839   -5.5714   27.6660 C   0  0  0  0  0  0  0  0  0  0  0  0
    3.7087   -6.0493   27.2311 C   0  0  0  0  0  0  0  0  0  0  0  0
    4.0567   -7.2189   27.2518 O   0  0  0  0  0  0  0  0  0  0  0  0
    4.4393   -4.9571   26.9153 O   0  0  0  0  0  0  0  0  0  0  0  0
    5.8330   -5.0726   27.2290 C   0  0  0  0  0  0  0  0  0  0  0  0
    6.0386   -4.6566   28.6876 C   0  0  0  0  0  0  0  0  0  0  0  0
    0.4165   -6.7424   30.6519 C   0  0  0  0  0  0  0  0  0  0  0  0
   -1.4749   -7.4122   31.8588 N   0  0  0  0  0  0  0  0  0  0  0  0
   -1.6432   -7.8788   33.1745 N   0  0  0  0  0  0  0  0  0  0  0  0
    0.8377   -2.9689   34.2062 N   0  0  0  0  0  0  0  0  0  0  0  0
    0.4376   -1.6853   33.9094 N   0  0  0  0  0  0  0  0  0  0  0  0
    1.1688   -1.2484   32.9049 C   0  0  0  0  0  0  0  0  0  0  0  0
    0.9641   -0.0288   32.1473 C   0  0  0  0  0  0  0  0  0  0  0  0
    1.7821    1.0906   32.2978 C   0  0  0  0  0  0  0  0  0  0  0  0
    1.6439    2.1661   31.4211 C   0  0  0  0  0  0  0  0  0  0  0  0
    0.7032    2.0748   30.4111 C   0  0  0  0  0  0  0  0  0  0  0  0
   -0.1024    1.0040   30.2466 N   0  0  0  0  0  0  0  0  0  0  0  0
    0.0145   -0.0042   31.1345 C   0  0  0  0  0  0  0  0  0  0  0  0
    3.5227   -3.7452   29.4109 H   0  0  0  0  0  0  0  0  0  0  0  0
    2.6270   -2.6473   28.1932 H   0  0  0  0  0  0  0  0  0  0  0  0
    2.1545   -1.0759   29.8915 H   0  0  0  0  0  0  0  0  0  0  0  0
    3.7245   -1.1930   31.8601 H   0  0  0  0  0  0  0  0  0  0  0  0
    3.8576   -2.9276   31.7137 H   0  0  0  0  0  0  0  0  0  0  0  0
    2.2633   -5.7037   35.8446 H   0  0  0  0  0  0  0  0  0  0  0  0
    0.7325   -7.2093   37.0441 H   0  0  0  0  0  0  0  0  0  0  0  0
   -1.1192   -8.3240   35.8389 H   0  0  0  0  0  0  0  0  0  0  0  0
   -2.0252   -4.9921   31.6576 H   0  0  0  0  0  0  0  0  0  0  0  0
   -0.9594   -4.4167   32.8271 H   0  0  0  0  0  0  0  0  0  0  0  0
   -1.2868   -3.2111   30.5515 H   0  0  0  0  0  0  0  0  0  0  0  0
    0.3045   -3.3043   31.2203 H   0  0  0  0  0  0  0  0  0  0  0  0
   -0.7947   -5.0077   29.0200 H   0  0  0  0  0  0  0  0  0  0  0  0
    0.4357   -3.7766   28.8712 H   0  0  0  0  0  0  0  0  0  0  0  0
    1.7776   -5.1156   30.6083 H   0  0  0  0  0  0  0  0  0  0  0  0
    2.6142   -6.9334   29.1800 H   0  0  0  0  0  0  0  0  0  0  0  0
    1.9731   -4.6722   27.2343 H   0  0  0  0  0  0  0  0  0  0  0  0
    6.2088   -6.0861   27.0488 H   0  0  0  0  0  0  0  0  0  0  0  0
    6.3799   -4.3948   26.5659 H   0  0  0  0  0  0  0  0  0  0  0  0
    5.4292   -5.2626   29.3650 H   0  0  0  0  0  0  0  0  0  0  0  0
    7.0900   -4.7699   28.9678 H   0  0  0  0  0  0  0  0  0  0  0  0
    5.7606   -3.6084   28.8287 H   0  0  0  0  0  0  0  0  0  0  0  0
    1.1335   -7.5010   30.9510 H   0  0  0  0  0  0  0  0  0  0  0  0
   -0.2308   -7.2465   29.9194 H   0  0  0  0  0  0  0  0  0  0  0  0
   -2.3527   -7.0009   31.5505 H   0  0  0  0  0  0  0  0  0  0  0  0
   -1.8058   -8.8787   33.3384 H   0  0  0  0  0  0  0  0  0  0  0  0
    2.5327    1.1287   33.0830 H   0  0  0  0  0  0  0  0  0  0  0  0
    2.2604    3.0534   31.5179 H   0  0  0  0  0  0  0  0  0  0  0  0
    0.5547    2.8834   29.6986 H   0  0  0  0  0  0  0  0  0  0  0  0
   -0.6604   -0.8382   30.9645 H   0  0  0  0  0  0  0  0  0  0  0  0
  1  2  2  0
  2  3  1  0
  3  4  1  0
  4  5  1  0
  5  6  1  0
  6  7  1  0
  7  8  2  0
  8  9  1  0
  9 10  2  0
 10 11  1  0
 11 12  2  0
 12 13  1  0
 13 14  1  0
 14 15  1  0
 15 16  1  0
 16 17  1  0
 17 18  1  0
 18 19  2  3
 19 20  1  0
 20 21  2  0
 20 22  1  0
 22 23  1  0
 23 24  1  0
 17 25  1  0
 13 26  1  0
 26 27  1  0
  5 28  2  0
 28 29  1  0
 29 30  2  0
 30 31  1  0
 31 32  2  0
 32 33  1  0
 33 34  2  0
 34 35  1  0
 35 36  2  0
 30  4  1  0
 36 31  1  0
 12  7  1  0
 25 13  1  0
 27 11  1  0
  1 37  1  0
  1 38  1  0
  2 39  1  0
  3 40  1  0
  3 41  1  0
  8 42  1  0
  9 43  1  0
 10 44  1  0
 14 45  1  0
 14 46  1  0
 15 47  1  0
 15 48  1  0
 16 49  1  0
 16 50  1  0
 17 51  1  0
 18 52  1  0
 19 53  1  0
 23 54  1  0
 23 55  1  0
 24 56  1  0
 24 57  1  0
 24 58  1  0
 25 59  1  0
 25 60  1  0
 26 61  1  0
 27 62  1  0
 32 63  1  0
 33 64  1  0
 34 65  1  0
 36 66  1  0
M  END
>  <Energy>  (54) 
137.34995626344329

>  <compound_id>  (54) 
287

>  <target_id>  (54) 
1

>  <reference_id>  (54) 
201

>  <inspiration_ids>  (54) 
[163, 201]

>  <energy_score>  (54) 
-59.93657935955284

>  <distance_score>  (54) 
1.108461351896433

>  <path>  (54) 
/opt/xchem-fragalysis-2/maxwin/BulkDock/SCRATCH/505736/C287-P201/C287-P201.minimised.mol

>  <scratch_subdir>  (54) 
/opt/xchem-fragalysis-2/maxwin/BulkDock/SCRATCH/505736/C287-P201

>  <fragmenstein_runtime>  (54) 
4.945180892944336

>  <fragmenstein_outcome>  (54) 
too moved

>  <fragmenstein_mode>  (54) 
expansion

>  <fragmenstein_error>  (54) 


$$$$
C2363-P164
     RDKit          3D

 57 61  0  0  0  0  0  0  0  0999 V2000
   -2.2906   -0.4773   31.8847 C   0  0  0  0  0  0  0  0  0  0  0  0
   -0.9012   -0.9526   32.2012 C   0  0  0  0  0  0  0  0  0  0  0  0
   -0.5384   -2.5561   31.5448 S   0  0  0  0  0  0  0  0  0  0  0  0
   -1.6150   -3.4691   31.8793 O   0  0  0  0  0  0  0  0  0  0  0  0
    0.9658   -2.7902   31.8459 N   0  0  0  0  0  0  0  0  0  0  0  0
    1.6883   -4.0501   31.5018 N   0  0  0  0  0  0  0  0  0  0  0  0
    1.0877   -5.2375   31.8861 C   0  0  0  0  0  0  0  0  0  0  0  0
    0.8020   -5.4366   33.3174 C   0  0  0  0  0  0  0  0  0  0  0  0
   -0.0476   -6.4055   33.7130 C   0  0  0  0  0  0  0  0  0  0  0  0
   -0.5291   -6.6878   35.3596 S   0  0  0  0  0  0  0  0  0  0  0  0
    0.8443   -6.0925   36.3857 C   0  0  0  0  0  0  0  0  0  0  0  0
    0.5897   -6.4082   37.8392 C   0  0  0  0  0  0  0  0  0  0  0  0
    0.9033   -7.6636   38.3710 C   0  0  0  0  0  0  0  0  0  0  0  0
    0.5929   -7.9301   39.6965 C   0  0  0  0  0  0  0  0  0  0  0  0
    0.0115   -7.0342   40.5214 N   0  0  0  0  0  0  0  0  0  0  0  0
   -0.2880   -5.8287   39.9940 C   0  0  0  0  0  0  0  0  0  0  0  0
   -0.0254   -5.4741   38.6789 C   0  0  0  0  0  0  0  0  0  0  0  0
   -0.6211   -7.1939   32.7020 N   0  0  0  0  0  0  0  0  0  0  0  0
   -1.5856   -8.1587   32.7293 C   0  0  0  0  0  0  0  0  0  0  0  0
   -1.8041   -8.6311   31.5243 N   0  0  0  0  0  0  0  0  0  0  0  0
   -0.9929   -7.9590   30.6551 N   0  0  0  0  0  0  0  0  0  0  0  0
   -0.2907   -7.1028   31.3595 C   0  0  0  0  0  0  0  0  0  0  0  0
    0.6187   -6.1030   30.9673 C   0  0  0  0  0  0  0  0  0  0  0  0
   -0.6594   -2.5171   29.8831 N   0  0  0  0  0  0  0  0  0  0  0  0
    0.3186   -1.9608   28.9883 C   0  0  0  0  0  0  0  0  0  0  0  0
   -0.0346   -0.5662   28.5481 C   0  0  0  0  0  0  0  0  0  0  0  0
    0.8344    0.5112   28.8245 C   0  0  0  0  0  0  0  0  0  0  0  0
    0.5462    1.8024   28.3707 C   0  0  0  0  0  0  0  0  0  0  0  0
   -0.6096    1.9884   27.6465 C   0  0  0  0  0  0  0  0  0  0  0  0
   -1.4610    0.9500   27.3718 C   0  0  0  0  0  0  0  0  0  0  0  0
   -1.2073   -0.3319   27.8121 C   0  0  0  0  0  0  0  0  0  0  0  0
   -2.5196    1.3432   26.6155 O   0  0  0  0  0  0  0  0  0  0  0  0
   -2.2953    2.7629   26.5351 C   0  0  0  0  0  0  0  0  0  0  0  0
   -1.0332    3.1629   27.1096 O   0  0  0  0  0  0  0  0  0  0  0  0
   -3.0414   -1.2292   32.1430 H   0  0  0  0  0  0  0  0  0  0  0  0
   -2.3883   -0.2298   30.8256 H   0  0  0  0  0  0  0  0  0  0  0  0
   -2.5002    0.4143   32.4757 H   0  0  0  0  0  0  0  0  0  0  0  0
   -0.1531   -0.2472   31.8273 H   0  0  0  0  0  0  0  0  0  0  0  0
   -0.7801   -1.0329   33.2872 H   0  0  0  0  0  0  0  0  0  0  0  0
    1.9439   -4.0680   30.5118 H   0  0  0  0  0  0  0  0  0  0  0  0
    1.2559   -4.7251   33.9991 H   0  0  0  0  0  0  0  0  0  0  0  0
    0.9628   -5.0106   36.2630 H   0  0  0  0  0  0  0  0  0  0  0  0
    1.7803   -6.5639   36.0653 H   0  0  0  0  0  0  0  0  0  0  0  0
    1.3574   -8.4408   37.7686 H   0  0  0  0  0  0  0  0  0  0  0  0
    0.7981   -8.9051   40.1335 H   0  0  0  0  0  0  0  0  0  0  0  0
   -0.7769   -5.1352   40.6726 H   0  0  0  0  0  0  0  0  0  0  0  0
   -0.3191   -4.4933   38.3191 H   0  0  0  0  0  0  0  0  0  0  0  0
   -2.0925   -8.4644   33.6302 H   0  0  0  0  0  0  0  0  0  0  0  0
    0.7758   -5.9557   29.9067 H   0  0  0  0  0  0  0  0  0  0  0  0
   -1.0616   -3.3785   29.5362 H   0  0  0  0  0  0  0  0  0  0  0  0
    0.3795   -2.5964   28.1047 H   0  0  0  0  0  0  0  0  0  0  0  0
    1.3290   -1.9819   29.4096 H   0  0  0  0  0  0  0  0  0  0  0  0
    1.7504    0.3457   29.3884 H   0  0  0  0  0  0  0  0  0  0  0  0
    1.2118    2.6337   28.5749 H   0  0  0  0  0  0  0  0  0  0  0  0
   -1.8813   -1.1436   27.5539 H   0  0  0  0  0  0  0  0  0  0  0  0
   -3.1047    3.2814   27.0569 H   0  0  0  0  0  0  0  0  0  0  0  0
   -2.3079    3.0601   25.4806 H   0  0  0  0  0  0  0  0  0  0  0  0
  1  2  1  0
  2  3  1  0
  3  4  2  0
  3  5  2  0
  5  6  1  0
  6  7  1  0
  7  8  1  0
  8  9  2  0
  9 10  1  0
 10 11  1  0
 11 12  1  0
 12 13  2  0
 13 14  1  0
 14 15  2  0
 15 16  1  0
 16 17  2  0
  9 18  1  0
 18 19  1  0
 19 20  2  0
 20 21  1  0
 21 22  2  0
 22 23  1  0
  3 24  1  0
 24 25  1  0
 25 26  1  0
 26 27  2  0
 27 28  1  0
 28 29  2  0
 29 30  1  0
 30 31  2  0
 30 32  1  0
 32 33  1  0
 33 34  1  0
 23  7  2  0
 31 26  1  0
 17 12  1  0
 22 18  1  0
 34 29  1  0
  1 35  1  0
  1 36  1  0
  1 37  1  0
  2 38  1  0
  2 39  1  0
  6 40  1  0
  8 41  1  0
 11 42  1  0
 11 43  1  0
 13 44  1  0
 14 45  1  0
 16 46  1  0
 17 47  1  0
 19 48  1  0
 23 49  1  0
 24 50  1  0
 25 51  1  0
 25 52  1  0
 27 53  1  0
 28 54  1  0
 31 55  1  0
 33 56  1  0
 33 57  1  0
M  END
>  <Energy>  (55) 
15.521128481590729

>  <compound_id>  (55) 
2363

>  <target_id>  (55) 
1

>  <reference_id>  (55) 
164

>  <inspiration_ids>  (55) 
[164, 13]

>  <energy_score>  (55) 
-82.40842096300437

>  <distance_score>  (55) 
0.5005676256442552

>  <path>  (55) 
/opt/xchem-fragalysis-2/maxwin/BulkDock/SCRATCH/505736/C2363-P164/C2363-P164.minimised.mol

>  <scratch_subdir>  (55) 
/opt/xchem-fragalysis-2/maxwin/BulkDock/SCRATCH/505736/C2363-P164

>  <fragmenstein_runtime>  (55) 
3.30147647857666

>  <fragmenstein_outcome>  (55) 
acceptable

>  <fragmenstein_mode>  (55) 
expansion

>  <fragmenstein_error>  (55) 


$$$$
C2363-P13
     RDKit          3D

 57 61  0  0  0  0  0  0  0  0999 V2000
   -2.4598   -0.6852   31.5575 C   0  0  0  0  0  0  0  0  0  0  0  0
   -1.0226   -1.0077   31.8561 C   0  0  0  0  0  0  0  0  0  0  0  0
   -0.5605   -2.6426   31.3787 S   0  0  0  0  0  0  0  0  0  0  0  0
   -1.6274   -3.5478   31.7634 O   0  0  0  0  0  0  0  0  0  0  0  0
    0.9338   -2.7883   31.7816 N   0  0  0  0  0  0  0  0  0  0  0  0
    1.7223   -4.0319   31.4750 N   0  0  0  0  0  0  0  0  0  0  0  0
    1.1432   -5.2313   31.8655 C   0  0  0  0  0  0  0  0  0  0  0  0
    0.8193   -5.4037   33.2898 C   0  0  0  0  0  0  0  0  0  0  0  0
   -0.0508   -6.3571   33.6768 C   0  0  0  0  0  0  0  0  0  0  0  0
   -0.5798   -6.5819   35.3190 S   0  0  0  0  0  0  0  0  0  0  0  0
    0.8598   -6.1356   36.3312 C   0  0  0  0  0  0  0  0  0  0  0  0
    0.6235   -6.4936   37.7774 C   0  0  0  0  0  0  0  0  0  0  0  0
    0.9274   -7.7711   38.2602 C   0  0  0  0  0  0  0  0  0  0  0  0
    0.6572   -8.0635   39.5885 C   0  0  0  0  0  0  0  0  0  0  0  0
    0.1097   -7.1847   40.4535 N   0  0  0  0  0  0  0  0  0  0  0  0
   -0.1861   -5.9598   39.9698 C   0  0  0  0  0  0  0  0  0  0  0  0
    0.0478   -5.5723   38.6592 C   0  0  0  0  0  0  0  0  0  0  0  0
   -0.5978   -7.1628   32.6652 N   0  0  0  0  0  0  0  0  0  0  0  0
   -1.5847   -8.1027   32.6777 C   0  0  0  0  0  0  0  0  0  0  0  0
   -1.7489   -8.6275   31.4863 N   0  0  0  0  0  0  0  0  0  0  0  0
   -0.8922   -7.9928   30.6311 N   0  0  0  0  0  0  0  0  0  0  0  0
   -0.2155   -7.1132   31.3345 C   0  0  0  0  0  0  0  0  0  0  0  0
    0.7065   -6.1197   30.9511 C   0  0  0  0  0  0  0  0  0  0  0  0
   -0.5580   -2.8286   29.7158 N   0  0  0  0  0  0  0  0  0  0  0  0
    0.3048   -2.1274   28.7997 C   0  0  0  0  0  0  0  0  0  0  0  0
   -0.1553   -0.7454   28.4198 C   0  0  0  0  0  0  0  0  0  0  0  0
    0.6741    0.3682   28.6879 C   0  0  0  0  0  0  0  0  0  0  0  0
    0.3212    1.6505   28.2581 C   0  0  0  0  0  0  0  0  0  0  0  0
   -0.8580    1.7918   27.5621 C   0  0  0  0  0  0  0  0  0  0  0  0
   -1.6762    0.7213   27.3027 C   0  0  0  0  0  0  0  0  0  0  0  0
   -1.3594   -0.5545   27.7203 C   0  0  0  0  0  0  0  0  0  0  0  0
   -2.7702    1.0753   26.5795 O   0  0  0  0  0  0  0  0  0  0  0  0
   -2.5810    2.4986   26.4622 C   0  0  0  0  0  0  0  0  0  0  0  0
   -1.3376    2.9520   27.0417 O   0  0  0  0  0  0  0  0  0  0  0  0
   -3.1396   -1.4863   31.8619 H   0  0  0  0  0  0  0  0  0  0  0  0
   -2.6108   -0.4928   30.4933 H   0  0  0  0  0  0  0  0  0  0  0  0
   -2.7340    0.2002   32.1261 H   0  0  0  0  0  0  0  0  0  0  0  0
   -0.3435   -0.2898   31.3909 H   0  0  0  0  0  0  0  0  0  0  0  0
   -0.8656   -0.9585   32.9400 H   0  0  0  0  0  0  0  0  0  0  0  0
    1.9584   -4.0612   30.4792 H   0  0  0  0  0  0  0  0  0  0  0  0
    1.2519   -4.6786   33.9709 H   0  0  0  0  0  0  0  0  0  0  0  0
    1.0565   -5.0611   36.2493 H   0  0  0  0  0  0  0  0  0  0  0  0
    1.7502   -6.6590   35.9641 H   0  0  0  0  0  0  0  0  0  0  0  0
    1.3519   -8.5348   37.6172 H   0  0  0  0  0  0  0  0  0  0  0  0
    0.8726   -9.0452   40.0014 H   0  0  0  0  0  0  0  0  0  0  0  0
   -0.6418   -5.2776   40.6823 H   0  0  0  0  0  0  0  0  0  0  0  0
   -0.2319   -4.5751   38.3347 H   0  0  0  0  0  0  0  0  0  0  0  0
   -2.1457   -8.3525   33.5620 H   0  0  0  0  0  0  0  0  0  0  0  0
    0.8844   -5.9824   29.8927 H   0  0  0  0  0  0  0  0  0  0  0  0
   -1.5099   -2.8784   29.3647 H   0  0  0  0  0  0  0  0  0  0  0  0
    0.3793   -2.7218   27.8862 H   0  0  0  0  0  0  0  0  0  0  0  0
    1.3299   -2.0909   29.1855 H   0  0  0  0  0  0  0  0  0  0  0  0
    1.6141    0.2348   29.2206 H   0  0  0  0  0  0  0  0  0  0  0  0
    0.9560    2.5076   28.4523 H   0  0  0  0  0  0  0  0  0  0  0  0
   -2.0060   -1.3855   27.4505 H   0  0  0  0  0  0  0  0  0  0  0  0
   -3.4110    3.0120   26.9557 H   0  0  0  0  0  0  0  0  0  0  0  0
   -2.5860    2.7649   25.3992 H   0  0  0  0  0  0  0  0  0  0  0  0
  1  2  1  0
  2  3  1  0
  3  4  2  0
  3  5  2  0
  5  6  1  0
  6  7  1  0
  7  8  1  0
  8  9  2  0
  9 10  1  0
 10 11  1  0
 11 12  1  0
 12 13  2  0
 13 14  1  0
 14 15  2  0
 15 16  1  0
 16 17  2  0
  9 18  1  0
 18 19  1  0
 19 20  2  0
 20 21  1  0
 21 22  2  0
 22 23  1  0
  3 24  1  0
 24 25  1  0
 25 26  1  0
 26 27  2  0
 27 28  1  0
 28 29  2  0
 29 30  1  0
 30 31  2  0
 30 32  1  0
 32 33  1  0
 33 34  1  0
 23  7  2  0
 31 26  1  0
 17 12  1  0
 22 18  1  0
 34 29  1  0
  1 35  1  0
  1 36  1  0
  1 37  1  0
  2 38  1  0
  2 39  1  0
  6 40  1  0
  8 41  1  0
 11 42  1  0
 11 43  1  0
 13 44  1  0
 14 45  1  0
 16 46  1  0
 17 47  1  0
 19 48  1  0
 23 49  1  0
 24 50  1  0
 25 51  1  0
 25 52  1  0
 27 53  1  0
 28 54  1  0
 31 55  1  0
 33 56  1  0
 33 57  1  0
M  END
>  <Energy>  (56) 
14.391197400186696

>  <compound_id>  (56) 
2363

>  <target_id>  (56) 
1

>  <reference_id>  (56) 
13

>  <inspiration_ids>  (56) 
[164, 13]

>  <energy_score>  (56) 
-83.53835204441128

>  <distance_score>  (56) 
0.39370627410187825

>  <path>  (56) 
/opt/xchem-fragalysis-2/maxwin/BulkDock/SCRATCH/505736/C2363-P13/C2363-P13.minimised.mol

>  <scratch_subdir>  (56) 
/opt/xchem-fragalysis-2/maxwin/BulkDock/SCRATCH/505736/C2363-P13

>  <fragmenstein_runtime>  (56) 
3.3184525966644287

>  <fragmenstein_outcome>  (56) 
acceptable

>  <fragmenstein_mode>  (56) 
expansion

>  <fragmenstein_error>  (56) 


$$$$
C2364-P164
     RDKit          3D

 56 58  0  0  0  0  0  0  0  0999 V2000
    1.3765   -6.4696   29.8066 C   0  0  0  0  0  0  0  0  0  0  0  0
    2.0900   -5.5140   28.9586 C   0  0  0  0  0  0  0  0  0  0  0  0
    3.1253   -5.7764   28.0330 C   0  0  0  0  0  0  0  0  0  0  0  0
    3.4447   -4.5786   27.4426 C   0  0  0  0  0  0  0  0  0  0  0  0
    2.6754   -3.5999   28.0177 N   0  0  0  0  0  0  0  0  0  0  0  0
    1.7691   -4.1741   28.8690 C   0  0  0  0  0  0  0  0  0  0  0  0
    0.6328   -3.4032   29.4748 C   0  0  0  0  0  0  0  0  0  0  0  0
    0.8525   -2.9789   30.9280 C   0  0  0  0  0  0  0  0  0  0  0  0
    0.7877   -4.0292   32.0185 C   0  0  0  0  0  0  0  0  0  0  0  0
    1.6173   -3.8775   33.1219 C   0  0  0  0  0  0  0  0  0  0  0  0
    1.4407   -4.6725   34.2499 C   0  0  0  0  0  0  0  0  0  0  0  0
    0.5078   -5.7130   34.2639 C   0  0  0  0  0  0  0  0  0  0  0  0
   -0.0308   -6.2003   35.8762 S   0  0  0  0  0  4  0  0  0  0  0  0
   -0.5621   -7.8545   35.9538 C   0  0  0  0  0  0  0  0  0  0  0  0
   -1.9646   -8.0266   35.6200 N   0  0  0  0  0  0  0  0  0  0  0  0
    1.3276   -6.1044   37.0097 C   0  0  0  0  0  0  0  0  0  0  0  0
    0.8294   -6.4485   38.3824 C   0  0  0  0  0  0  0  0  0  0  0  0
    1.1214   -7.6873   38.9632 C   0  0  0  0  0  0  0  0  0  0  0  0
    0.5838   -7.9871   40.2044 C   0  0  0  0  0  0  0  0  0  0  0  0
   -0.1835   -7.1312   40.9120 N   0  0  0  0  0  0  0  0  0  0  0  0
   -0.4403   -5.9337   40.3445 C   0  0  0  0  0  0  0  0  0  0  0  0
    0.0334   -5.5520   39.0999 C   0  0  0  0  0  0  0  0  0  0  0  0
   -0.1821   -6.0369   33.0863 C   0  0  0  0  0  0  0  0  0  0  0  0
   -0.9756   -7.3033   32.8804 C   0  0  0  0  0  0  0  0  0  0  0  0
   -0.7287   -8.0756   31.6551 N   0  0  0  0  0  0  0  0  0  0  0  0
   -1.4461   -7.5413   30.5886 N   0  0  0  0  0  0  0  0  0  0  0  0
   -0.1355   -5.0824   32.0458 C   0  0  0  0  0  0  0  0  0  0  0  0
    1.4589   -7.4910   29.4314 H   0  0  0  0  0  0  0  0  0  0  0  0
    1.7525   -6.4128   30.8279 H   0  0  0  0  0  0  0  0  0  0  0  0
    0.3269   -6.2100   29.7884 H   0  0  0  0  0  0  0  0  0  0  0  0
    3.5988   -6.7188   27.8031 H   0  0  0  0  0  0  0  0  0  0  0  0
    4.1815   -4.3252   26.6912 H   0  0  0  0  0  0  0  0  0  0  0  0
    2.7065   -2.6149   27.7803 H   0  0  0  0  0  0  0  0  0  0  0  0
   -0.2989   -3.9690   29.3652 H   0  0  0  0  0  0  0  0  0  0  0  0
    0.4864   -2.4910   28.8800 H   0  0  0  0  0  0  0  0  0  0  0  0
    1.8188   -2.4595   30.9861 H   0  0  0  0  0  0  0  0  0  0  0  0
    0.0882   -2.2311   31.1793 H   0  0  0  0  0  0  0  0  0  0  0  0
    2.3340   -3.0592   33.1658 H   0  0  0  0  0  0  0  0  0  0  0  0
    2.0026   -4.3855   35.1309 H   0  0  0  0  0  0  0  0  0  0  0  0
   -1.0253   -5.3821   36.2917 H   0  0  0  0  0  0  0  0  0  0  0  0
   -0.3970   -8.2436   36.9510 H   0  0  0  0  0  0  0  0  0  0  0  0
    0.1081   -8.4094   35.3059 H   0  0  0  0  0  0  0  0  0  0  0  0
   -2.2430   -7.3234   34.9514 H   0  0  0  0  0  0  0  0  0  0  0  0
   -2.0659   -8.9573   35.1943 H   0  0  0  0  0  0  0  0  0  0  0  0
    2.1116   -6.7871   36.6690 H   0  0  0  0  0  0  0  0  0  0  0  0
    1.7236   -5.0878   37.0330 H   0  0  0  0  0  0  0  0  0  0  0  0
    1.7214   -8.4336   38.4536 H   0  0  0  0  0  0  0  0  0  0  0  0
    0.7541   -8.9563   40.6675 H   0  0  0  0  0  0  0  0  0  0  0  0
   -1.0744   -5.2718   40.9277 H   0  0  0  0  0  0  0  0  0  0  0  0
   -0.2340   -4.5814   38.6956 H   0  0  0  0  0  0  0  0  0  0  0  0
   -0.6583   -8.0302   33.6027 H   0  0  0  0  0  0  0  0  0  0  0  0
   -2.0338   -7.1097   33.0106 H   0  0  0  0  0  0  0  0  0  0  0  0
    0.2811   -8.0874   31.4975 H   0  0  0  0  0  0  0  0  0  0  0  0
   -1.2259   -7.9386   29.6747 H   0  0  0  0  0  0  0  0  0  0  0  0
   -2.4435   -7.5152   30.7865 H   0  0  0  0  0  0  0  0  0  0  0  0
   -0.8215   -5.1807   31.2134 H   0  0  0  0  0  0  0  0  0  0  0  0
  1  2  1  0
  2  3  1  0
  3  4  2  0
  4  5  1  0
  5  6  1  0
  6  7  1  0
  7  8  1  0
  8  9  1  0
  9 10  2  0
 10 11  1  0
 11 12  2  0
 12 13  1  0
 13 14  1  0
 14 15  1  0
 13 16  1  0
 16 17  1  0
 17 18  2  0
 18 19  1  0
 19 20  2  0
 20 21  1  0
 21 22  2  0
 12 23  1  0
 23 24  1  0
 24 25  1  0
 25 26  1  0
 23 27  2  0
  6  2  2  0
 27  9  1  0
 22 17  1  0
  1 28  1  0
  1 29  1  0
  1 30  1  0
  3 31  1  0
  4 32  1  0
  5 33  1  0
  7 34  1  0
  7 35  1  0
  8 36  1  0
  8 37  1  0
 10 38  1  0
 11 39  1  0
 13 40  1  0
 14 41  1  0
 14 42  1  0
 15 43  1  0
 15 44  1  0
 16 45  1  0
 16 46  1  0
 18 47  1  0
 19 48  1  0
 21 49  1  0
 22 50  1  0
 24 51  1  0
 24 52  1  0
 25 53  1  0
 26 54  1  0
 26 55  1  0
 27 56  1  0
M  END
>  <Energy>  (57) 
135.43090362500087

>  <compound_id>  (57) 
2364

>  <target_id>  (57) 
1

>  <reference_id>  (57) 
164

>  <inspiration_ids>  (57) 
[164, 40]

>  <energy_score>  (57) 
-153.30882428487936

>  <distance_score>  (57) 
1.2695848723376428

>  <path>  (57) 
/opt/xchem-fragalysis-2/maxwin/BulkDock/SCRATCH/505736/C2364-P164/C2364-P164.minimised.mol

>  <scratch_subdir>  (57) 
/opt/xchem-fragalysis-2/maxwin/BulkDock/SCRATCH/505736/C2364-P164

>  <fragmenstein_runtime>  (57) 
4.14449143409729

>  <fragmenstein_outcome>  (57) 
too moved

>  <fragmenstein_mode>  (57) 
expansion

>  <fragmenstein_error>  (57) 


$$$$
C2364-P40
     RDKit          3D

 56 58  0  0  0  0  0  0  0  0999 V2000
    0.5989   -6.9938   29.3478 C   0  0  0  0  0  0  0  0  0  0  0  0
    1.4402   -5.9968   28.6649 C   0  0  0  0  0  0  0  0  0  0  0  0
    2.5391   -6.2428   27.8043 C   0  0  0  0  0  0  0  0  0  0  0  0
    2.9783   -5.0273   27.3386 C   0  0  0  0  0  0  0  0  0  0  0  0
    2.2288   -4.0487   27.9318 N   0  0  0  0  0  0  0  0  0  0  0  0
    1.2761   -4.6262   28.7323 C   0  0  0  0  0  0  0  0  0  0  0  0
    0.2517   -3.8065   29.4472 C   0  0  0  0  0  0  0  0  0  0  0  0
    0.6481   -3.4296   30.8712 C   0  0  0  0  0  0  0  0  0  0  0  0
    0.6874   -4.5071   31.9380 C   0  0  0  0  0  0  0  0  0  0  0  0
    1.6614   -4.3854   32.9322 C   0  0  0  0  0  0  0  0  0  0  0  0
    1.6111   -5.1696   34.0781 C   0  0  0  0  0  0  0  0  0  0  0  0
    0.6023   -6.1154   34.2260 C   0  0  0  0  0  0  0  0  0  0  0  0
    0.3480   -6.8096   35.8212 S   0  0  0  0  0  4  0  0  0  0  0  0
    1.2488   -8.3077   35.9163 C   0  0  0  0  0  0  0  0  0  0  0  0
    0.4738   -9.3505   36.5465 N   0  0  0  0  0  0  0  0  0  0  0  0
    1.0614   -5.7444   37.0358 C   0  0  0  0  0  0  0  0  0  0  0  0
    0.5708   -6.1517   38.3919 C   0  0  0  0  0  0  0  0  0  0  0  0
    1.1121   -7.2495   39.0694 C   0  0  0  0  0  0  0  0  0  0  0  0
    0.6208   -7.5810   40.3207 C   0  0  0  0  0  0  0  0  0  0  0  0
   -0.3404   -6.8813   40.9525 N   0  0  0  0  0  0  0  0  0  0  0  0
   -0.8395   -5.8128   40.2957 C   0  0  0  0  0  0  0  0  0  0  0  0
   -0.4296   -5.4191   39.0308 C   0  0  0  0  0  0  0  0  0  0  0  0
   -0.2842   -6.4010   33.1755 C   0  0  0  0  0  0  0  0  0  0  0  0
   -1.2183   -7.5901   33.2605 C   0  0  0  0  0  0  0  0  0  0  0  0
   -1.9211   -7.9879   32.0154 N   0  0  0  0  0  0  0  0  0  0  0  0
   -1.0903   -8.7545   31.1408 N   0  0  0  0  0  0  0  0  0  0  0  0
   -0.2754   -5.5228   32.0738 C   0  0  0  0  0  0  0  0  0  0  0  0
    0.6593   -7.9740   28.8720 H   0  0  0  0  0  0  0  0  0  0  0  0
    0.9364   -7.0628   30.3723 H   0  0  0  0  0  0  0  0  0  0  0  0
   -0.4521   -6.7085   29.3872 H   0  0  0  0  0  0  0  0  0  0  0  0
    2.9601   -7.1948   27.5105 H   0  0  0  0  0  0  0  0  0  0  0  0
    3.7775   -4.7735   26.6538 H   0  0  0  0  0  0  0  0  0  0  0  0
    2.3336   -3.0527   27.7746 H   0  0  0  0  0  0  0  0  0  0  0  0
   -0.7106   -4.3221   29.4344 H   0  0  0  0  0  0  0  0  0  0  0  0
    0.0919   -2.8798   28.8794 H   0  0  0  0  0  0  0  0  0  0  0  0
    1.6262   -2.9309   30.8279 H   0  0  0  0  0  0  0  0  0  0  0  0
   -0.0621   -2.6719   31.2292 H   0  0  0  0  0  0  0  0  0  0  0  0
    2.4227   -3.6097   32.8651 H   0  0  0  0  0  0  0  0  0  0  0  0
    2.3370   -4.9727   34.8599 H   0  0  0  0  0  0  0  0  0  0  0  0
   -0.9621   -7.0135   36.0868 H   0  0  0  0  0  0  0  0  0  0  0  0
    2.1824   -8.1332   36.4543 H   0  0  0  0  0  0  0  0  0  0  0  0
    1.5190   -8.5725   34.9016 H   0  0  0  0  0  0  0  0  0  0  0  0
   -0.3394   -9.5955   35.9698 H   0  0  0  0  0  0  0  0  0  0  0  0
    1.0102  -10.2088   36.6459 H   0  0  0  0  0  0  0  0  0  0  0  0
    2.1521   -5.8109   36.9881 H   0  0  0  0  0  0  0  0  0  0  0  0
    0.7650   -4.7163   36.8057 H   0  0  0  0  0  0  0  0  0  0  0  0
    1.9068   -7.8504   38.6460 H   0  0  0  0  0  0  0  0  0  0  0  0
    1.0074   -8.4364   40.8666 H   0  0  0  0  0  0  0  0  0  0  0  0
   -1.6233   -5.2722   40.8202 H   0  0  0  0  0  0  0  0  0  0  0  0
   -0.8906   -4.5562   38.5622 H   0  0  0  0  0  0  0  0  0  0  0  0
   -0.6290   -8.4380   33.6116 H   0  0  0  0  0  0  0  0  0  0  0  0
   -1.9642   -7.3708   34.0288 H   0  0  0  0  0  0  0  0  0  0  0  0
   -2.7545   -8.5295   32.2804 H   0  0  0  0  0  0  0  0  0  0  0  0
   -0.1251   -8.4167   31.1760 H   0  0  0  0  0  0  0  0  0  0  0  0
   -0.9581   -9.7191   31.4711 H   0  0  0  0  0  0  0  0  0  0  0  0
   -1.0426   -5.6314   31.3155 H   0  0  0  0  0  0  0  0  0  0  0  0
  1  2  1  0
  2  3  1  0
  3  4  2  0
  4  5  1  0
  5  6  1  0
  6  7  1  0
  7  8  1  0
  8  9  1  0
  9 10  2  0
 10 11  1  0
 11 12  2  0
 12 13  1  0
 13 14  1  0
 14 15  1  0
 13 16  1  0
 16 17  1  0
 17 18  2  0
 18 19  1  0
 19 20  2  0
 20 21  1  0
 21 22  2  0
 12 23  1  0
 23 24  1  0
 24 25  1  0
 25 26  1  0
 23 27  2  0
  6  2  2  0
 27  9  1  0
 22 17  1  0
  1 28  1  0
  1 29  1  0
  1 30  1  0
  3 31  1  0
  4 32  1  0
  5 33  1  0
  7 34  1  0
  7 35  1  0
  8 36  1  0
  8 37  1  0
 10 38  1  0
 11 39  1  0
 13 40  1  0
 14 41  1  0
 14 42  1  0
 15 43  1  0
 15 44  1  0
 16 45  1  0
 16 46  1  0
 18 47  1  0
 19 48  1  0
 21 49  1  0
 22 50  1  0
 24 51  1  0
 24 52  1  0
 25 53  1  0
 26 54  1  0
 26 55  1  0
 27 56  1  0
M  END
>  <Energy>  (58) 
111.04657907700522

>  <compound_id>  (58) 
2364

>  <target_id>  (58) 
1

>  <reference_id>  (58) 
40

>  <inspiration_ids>  (58) 
[164, 40]

>  <energy_score>  (58) 
-177.6931488328758

>  <distance_score>  (58) 
1.0122741088161027

>  <path>  (58) 
/opt/xchem-fragalysis-2/maxwin/BulkDock/SCRATCH/505736/C2364-P40/C2364-P40.minimised.mol

>  <scratch_subdir>  (58) 
/opt/xchem-fragalysis-2/maxwin/BulkDock/SCRATCH/505736/C2364-P40

>  <fragmenstein_runtime>  (58) 
3.62294864654541

>  <fragmenstein_outcome>  (58) 
too moved

>  <fragmenstein_mode>  (58) 
expansion

>  <fragmenstein_error>  (58) 


$$$$
C2365-P164
     RDKit          3D

 44 47  0  0  0  0  0  0  0  0999 V2000
    4.1078   -4.2635   34.0127 C   0  0  0  0  0  0  0  0  0  0  0  0
    3.7274   -3.8665   35.4222 C   0  0  0  0  0  0  0  0  0  0  0  0
    4.1646   -2.4922   35.8657 C   0  0  0  0  0  0  0  0  0  0  0  0
    3.3084   -2.2978   37.1092 C   0  0  0  0  0  0  0  0  0  0  0  0
    2.1242   -3.0953   36.9411 O   0  0  0  0  0  0  0  0  0  0  0  0
    2.2344   -3.7611   35.6868 C   0  0  0  0  0  0  0  0  0  0  0  0
    1.6670   -5.1320   35.8047 C   0  0  0  0  0  0  0  0  0  0  0  0
   -0.0487   -5.4553   35.3531 S   0  0  0  0  0  0  0  0  0  0  0  0
   -0.0512   -7.0208   36.2566 C   0  0  0  0  0  0  0  0  0  0  0  0
    0.1385   -6.8712   37.7575 C   0  0  0  0  0  0  0  0  0  0  0  0
    0.7668   -7.8939   38.4740 C   0  0  0  0  0  0  0  0  0  0  0  0
    0.8265   -7.8252   39.8582 C   0  0  0  0  0  0  0  0  0  0  0  0
    0.3346   -6.7971   40.5768 N   0  0  0  0  0  0  0  0  0  0  0  0
   -0.2527   -5.8039   39.8788 C   0  0  0  0  0  0  0  0  0  0  0  0
   -0.3817   -5.8007   38.4960 C   0  0  0  0  0  0  0  0  0  0  0  0
    0.2144   -5.8584   33.6266 C   0  0  0  0  0  0  0  0  0  0  0  0
    0.9423   -4.9744   32.9089 C   0  0  0  0  0  0  0  0  0  0  0  0
    1.1672   -5.1352   31.4916 C   0  0  0  0  0  0  0  0  0  0  0  0
    0.5548   -6.1112   30.8130 C   0  0  0  0  0  0  0  0  0  0  0  0
   -0.3151   -6.9909   31.4980 C   0  0  0  0  0  0  0  0  0  0  0  0
   -1.0940   -7.9498   31.0540 N   0  0  0  0  0  0  0  0  0  0  0  0
   -1.7668   -8.4556   32.1290 N   0  0  0  0  0  0  0  0  0  0  0  0
   -1.3851   -7.7949   33.2010 C   0  0  0  0  0  0  0  0  0  0  0  0
   -0.4536   -6.8498   32.8833 N   0  0  0  0  0  0  0  0  0  0  0  0
    3.6995   -3.5655   33.2751 H   0  0  0  0  0  0  0  0  0  0  0  0
    5.1971   -4.2593   33.8982 H   0  0  0  0  0  0  0  0  0  0  0  0
    3.7553   -5.2713   33.7742 H   0  0  0  0  0  0  0  0  0  0  0  0
    4.1826   -4.5973   36.1071 H   0  0  0  0  0  0  0  0  0  0  0  0
    5.2346   -2.4146   36.0782 H   0  0  0  0  0  0  0  0  0  0  0  0
    3.9108   -1.7378   35.1111 H   0  0  0  0  0  0  0  0  0  0  0  0
    3.8242   -2.6542   38.0069 H   0  0  0  0  0  0  0  0  0  0  0  0
    3.0284   -1.2512   37.2596 H   0  0  0  0  0  0  0  0  0  0  0  0
    1.7037   -3.1348   34.9694 H   0  0  0  0  0  0  0  0  0  0  0  0
    2.2934   -5.9183   36.2564 H   0  0  0  0  0  0  0  0  0  0  0  0
    0.7207   -7.6740   35.8342 H   0  0  0  0  0  0  0  0  0  0  0  0
   -1.0217   -7.4969   36.1043 H   0  0  0  0  0  0  0  0  0  0  0  0
    1.1821   -8.7612   37.9801 H   0  0  0  0  0  0  0  0  0  0  0  0
    1.2766   -8.6280   40.4365 H   0  0  0  0  0  0  0  0  0  0  0  0
   -0.6519   -4.9884   40.4755 H   0  0  0  0  0  0  0  0  0  0  0  0
   -0.9040   -4.9744   38.0238 H   0  0  0  0  0  0  0  0  0  0  0  0
    1.3501   -4.0616   33.3049 H   0  0  0  0  0  0  0  0  0  0  0  0
    1.8170   -4.4254   30.9870 H   0  0  0  0  0  0  0  0  0  0  0  0
    0.6966   -6.2218   29.7496 H   0  0  0  0  0  0  0  0  0  0  0  0
   -1.7694   -7.9597   34.1926 H   0  0  0  0  0  0  0  0  0  0  0  0
  1  2  1  0
  2  3  1  0
  3  4  1  0
  4  5  1  0
  5  6  1  0
  6  7  1  0
  7  8  2  3
  8  9  1  0
  9 10  1  0
 10 11  2  0
 11 12  1  0
 12 13  2  0
 13 14  1  0
 14 15  2  0
  8 16  1  0
 16 17  2  0
 17 18  1  0
 18 19  2  0
 19 20  1  0
 20 21  2  0
 21 22  1  0
 22 23  2  0
 23 24  1  0
  6  2  1  0
 15 10  1  0
 24 16  1  0
 24 20  1  0
  1 25  1  0
  1 26  1  0
  1 27  1  0
  2 28  1  0
  3 29  1  0
  3 30  1  0
  4 31  1  0
  4 32  1  0
  6 33  1  0
  7 34  1  0
  9 35  1  0
  9 36  1  0
 11 37  1  0
 12 38  1  0
 14 39  1  0
 15 40  1  0
 17 41  1  0
 18 42  1  0
 19 43  1  0
 23 44  1  0
M  END
>  <Energy>  (59) 
92.578587781676291

>  <compound_id>  (59) 
2365

>  <target_id>  (59) 
1

>  <reference_id>  (59) 
164

>  <inspiration_ids>  (59) 
[164, 41]

>  <energy_score>  (59) 
-43.64708427468291

>  <distance_score>  (59) 
0.9841264991313033

>  <path>  (59) 
/opt/xchem-fragalysis-2/maxwin/BulkDock/SCRATCH/505736/C2365-P164/C2365-P164.minimised.mol

>  <scratch_subdir>  (59) 
/opt/xchem-fragalysis-2/maxwin/BulkDock/SCRATCH/505736/C2365-P164

>  <fragmenstein_runtime>  (59) 
1.5682129859924316

>  <fragmenstein_outcome>  (59) 
acceptable

>  <fragmenstein_mode>  (59) 
expansion

>  <fragmenstein_error>  (59) 


$$$$
C2365-P41
     RDKit          3D

 44 47  0  0  0  0  0  0  0  0999 V2000
    4.0349   -4.2772   34.0122 C   0  0  0  0  0  0  0  0  0  0  0  0
    3.6661   -3.9389   35.4397 C   0  0  0  0  0  0  0  0  0  0  0  0
    4.0971   -2.5782   35.9298 C   0  0  0  0  0  0  0  0  0  0  0  0
    3.2500   -2.4348   37.1867 C   0  0  0  0  0  0  0  0  0  0  0  0
    2.0773   -3.2485   37.0083 O   0  0  0  0  0  0  0  0  0  0  0  0
    2.1753   -3.8562   35.7236 C   0  0  0  0  0  0  0  0  0  0  0  0
    1.6124   -5.2345   35.7798 C   0  0  0  0  0  0  0  0  0  0  0  0
   -0.1092   -5.5428   35.3277 S   0  0  0  0  0  0  0  0  0  0  0  0
   -0.1018   -7.1569   36.1430 C   0  0  0  0  0  0  0  0  0  0  0  0
    0.1385   -7.1080   37.6437 C   0  0  0  0  0  0  0  0  0  0  0  0
    0.6919   -8.2274   38.2767 C   0  0  0  0  0  0  0  0  0  0  0  0
    0.8394   -8.2188   39.6568 C   0  0  0  0  0  0  0  0  0  0  0  0
    0.4808   -7.1857   40.4450 N   0  0  0  0  0  0  0  0  0  0  0  0
   -0.0503   -6.1112   39.8271 C   0  0  0  0  0  0  0  0  0  0  0  0
   -0.2461   -6.0307   38.4557 C   0  0  0  0  0  0  0  0  0  0  0  0
    0.1549   -5.8599   33.5828 C   0  0  0  0  0  0  0  0  0  0  0  0
    0.8569   -4.9233   32.9079 C   0  0  0  0  0  0  0  0  0  0  0  0
    1.1056   -5.0261   31.4903 C   0  0  0  0  0  0  0  0  0  0  0  0
    0.5392   -5.9998   30.7702 C   0  0  0  0  0  0  0  0  0  0  0  0
   -0.3130   -6.9313   31.4082 C   0  0  0  0  0  0  0  0  0  0  0  0
   -1.0561   -7.8986   30.9210 N   0  0  0  0  0  0  0  0  0  0  0  0
   -1.7294   -8.4614   31.9675 N   0  0  0  0  0  0  0  0  0  0  0  0
   -1.3858   -7.8218   33.0653 C   0  0  0  0  0  0  0  0  0  0  0  0
   -0.4736   -6.8436   32.7954 N   0  0  0  0  0  0  0  0  0  0  0  0
    3.6137   -3.5540   33.3069 H   0  0  0  0  0  0  0  0  0  0  0  0
    5.1228   -4.2608   33.8868 H   0  0  0  0  0  0  0  0  0  0  0  0
    3.6862   -5.2772   33.7377 H   0  0  0  0  0  0  0  0  0  0  0  0
    4.1335   -4.6918   36.0916 H   0  0  0  0  0  0  0  0  0  0  0  0
    5.1682   -2.5005   36.1361 H   0  0  0  0  0  0  0  0  0  0  0  0
    3.8320   -1.7985   35.2055 H   0  0  0  0  0  0  0  0  0  0  0  0
    3.7810   -2.8070   38.0689 H   0  0  0  0  0  0  0  0  0  0  0  0
    2.9530   -1.3980   37.3693 H   0  0  0  0  0  0  0  0  0  0  0  0
    1.6351   -3.1982   35.0432 H   0  0  0  0  0  0  0  0  0  0  0  0
    2.2463   -6.0406   36.1835 H   0  0  0  0  0  0  0  0  0  0  0  0
    0.6483   -7.7931   35.6591 H   0  0  0  0  0  0  0  0  0  0  0  0
   -1.0851   -7.6089   35.9953 H   0  0  0  0  0  0  0  0  0  0  0  0
    0.9845   -9.1094   37.7157 H   0  0  0  0  0  0  0  0  0  0  0  0
    1.2560   -9.0750   40.1802 H   0  0  0  0  0  0  0  0  0  0  0  0
   -0.3380   -5.2919   40.4802 H   0  0  0  0  0  0  0  0  0  0  0  0
   -0.7038   -5.1343   38.0486 H   0  0  0  0  0  0  0  0  0  0  0  0
    1.2301   -4.0131   33.3429 H   0  0  0  0  0  0  0  0  0  0  0  0
    1.7378   -4.2782   31.0195 H   0  0  0  0  0  0  0  0  0  0  0  0
    0.7051   -6.0611   29.7071 H   0  0  0  0  0  0  0  0  0  0  0  0
   -1.7881   -8.0194   34.0433 H   0  0  0  0  0  0  0  0  0  0  0  0
  1  2  1  0
  2  3  1  0
  3  4  1  0
  4  5  1  0
  5  6  1  0
  6  7  1  0
  7  8  2  3
  8  9  1  0
  9 10  1  0
 10 11  2  0
 11 12  1  0
 12 13  2  0
 13 14  1  0
 14 15  2  0
  8 16  1  0
 16 17  2  0
 17 18  1  0
 18 19  2  0
 19 20  1  0
 20 21  2  0
 21 22  1  0
 22 23  2  0
 23 24  1  0
  6  2  1  0
 15 10  1  0
 24 16  1  0
 24 20  1  0
  1 25  1  0
  1 26  1  0
  1 27  1  0
  2 28  1  0
  3 29  1  0
  3 30  1  0
  4 31  1  0
  4 32  1  0
  6 33  1  0
  7 34  1  0
  9 35  1  0
  9 36  1  0
 11 37  1  0
 12 38  1  0
 14 39  1  0
 15 40  1  0
 17 41  1  0
 18 42  1  0
 19 43  1  0
 23 44  1  0
M  END
>  <Energy>  (60) 
92.330170058553691

>  <compound_id>  (60) 
2365

>  <target_id>  (60) 
1

>  <reference_id>  (60) 
41

>  <inspiration_ids>  (60) 
[164, 41]

>  <energy_score>  (60) 
-43.895501997805866

>  <distance_score>  (60) 
0.9786682121051093

>  <path>  (60) 
/opt/xchem-fragalysis-2/maxwin/BulkDock/SCRATCH/505736/C2365-P41/C2365-P41.minimised.mol

>  <scratch_subdir>  (60) 
/opt/xchem-fragalysis-2/maxwin/BulkDock/SCRATCH/505736/C2365-P41

>  <fragmenstein_runtime>  (60) 
1.591629981994629

>  <fragmenstein_outcome>  (60) 
acceptable

>  <fragmenstein_mode>  (60) 
expansion

>  <fragmenstein_error>  (60) 


$$$$
C2366-P164
     RDKit          3D

 58 61  0  0  0  0  0  0  0  0999 V2000
    8.7447   -6.9430   32.0169 C   0  0  0  0  0  0  0  0  0  0  0  0
    7.8779   -5.9004   31.5661 O   0  0  0  0  0  0  0  0  0  0  0  0
    6.9757   -5.4861   32.5008 C   0  0  0  0  0  0  0  0  0  0  0  0
    6.8792   -5.9383   33.6364 O   0  0  0  0  0  0  0  0  0  0  0  0
    6.0918   -4.3894   31.9259 C   0  0  0  0  0  0  0  0  0  0  0  0
    5.1217   -3.9579   32.8928 N   0  0  0  0  0  0  0  0  0  0  0  0
    3.9301   -3.1750   32.7499 C   0  0  0  0  0  0  0  0  0  0  0  0
    3.4554   -2.5877   31.7636 N   0  0  0  0  0  0  0  0  0  0  0  0
    2.2138   -1.8363   31.6647 C   0  0  0  0  0  0  0  0  0  0  0  0
    1.2254   -2.4597   30.6560 C   0  0  0  0  0  0  0  0  0  0  0  0
    0.9158   -3.8723   30.8501 N   0  0  0  0  0  0  0  0  0  0  0  0
    0.3270   -4.5246   31.9196 C   0  0  0  0  0  0  0  0  0  0  0  0
    0.1144   -3.9719   33.1332 C   0  0  0  0  0  0  0  0  0  0  0  0
   -0.2887   -4.7346   34.2977 C   0  0  0  0  0  0  0  0  0  0  0  0
   -0.5485   -6.0470   34.1750 C   0  0  0  0  0  0  0  0  0  0  0  0
   -0.8976   -7.0250   35.5596 S   0  0  0  0  0  0  0  0  0  0  0  0
    0.6280   -6.7879   36.5431 C   0  0  0  0  0  0  0  0  0  0  0  0
    0.3513   -6.7950   38.0222 C   0  0  0  0  0  0  0  0  0  0  0  0
    0.7064   -7.8912   38.8113 C   0  0  0  0  0  0  0  0  0  0  0  0
    0.4073   -7.8706   40.1643 C   0  0  0  0  0  0  0  0  0  0  0  0
   -0.1978   -6.8329   40.7803 N   0  0  0  0  0  0  0  0  0  0  0  0
   -0.5277   -5.7775   40.0065 C   0  0  0  0  0  0  0  0  0  0  0  0
   -0.2758   -5.7103   38.6445 C   0  0  0  0  0  0  0  0  0  0  0  0
   -0.5402   -6.5851   32.8861 N   0  0  0  0  0  0  0  0  0  0  0  0
   -0.9710   -7.7901   32.3988 C   0  0  0  0  0  0  0  0  0  0  0  0
   -0.7818   -7.8600   31.1014 N   0  0  0  0  0  0  0  0  0  0  0  0
   -0.2032   -6.6764   30.7046 N   0  0  0  0  0  0  0  0  0  0  0  0
   -0.1012   -5.8944   31.7641 C   0  0  0  0  0  0  0  0  0  0  0  0
    3.3152   -3.0845   34.1008 C   0  0  0  0  0  0  0  0  0  0  0  0
    2.9348   -1.9289   34.8371 C   0  0  0  0  0  0  0  0  0  0  0  0
    2.5096   -2.4054   36.0516 C   0  0  0  0  0  0  0  0  0  0  0  0
    1.9833   -1.7834   37.2787 C   0  0  0  0  0  0  0  0  0  0  0  0
    2.6449   -3.7551   36.0700 O   0  0  0  0  0  0  0  0  0  0  0  0
    3.1689   -4.1860   34.8653 N   0  0  0  0  0  0  0  0  0  0  0  0
    9.4202   -7.2001   31.1964 H   0  0  0  0  0  0  0  0  0  0  0  0
    8.1668   -7.8338   32.2821 H   0  0  0  0  0  0  0  0  0  0  0  0
    9.3446   -6.6016   32.8663 H   0  0  0  0  0  0  0  0  0  0  0  0
    6.7257   -3.5437   31.6431 H   0  0  0  0  0  0  0  0  0  0  0  0
    5.5843   -4.7799   31.0389 H   0  0  0  0  0  0  0  0  0  0  0  0
    5.1444   -4.3559   33.8359 H   0  0  0  0  0  0  0  0  0  0  0  0
    2.4636   -0.8304   31.3049 H   0  0  0  0  0  0  0  0  0  0  0  0
    1.7167   -1.6700   32.6166 H   0  0  0  0  0  0  0  0  0  0  0  0
    0.2941   -1.8815   30.6537 H   0  0  0  0  0  0  0  0  0  0  0  0
    1.6582   -2.3573   29.6533 H   0  0  0  0  0  0  0  0  0  0  0  0
    0.7995   -4.3898   29.9758 H   0  0  0  0  0  0  0  0  0  0  0  0
    0.3240   -2.9326   33.3341 H   0  0  0  0  0  0  0  0  0  0  0  0
   -0.3139   -4.2140   35.2496 H   0  0  0  0  0  0  0  0  0  0  0  0
    1.1289   -5.8493   36.2966 H   0  0  0  0  0  0  0  0  0  0  0  0
    1.3264   -7.5887   36.2755 H   0  0  0  0  0  0  0  0  0  0  0  0
    1.1924   -8.7640   38.3916 H   0  0  0  0  0  0  0  0  0  0  0  0
    0.6474   -8.7199   40.7992 H   0  0  0  0  0  0  0  0  0  0  0  0
   -1.0323   -4.9655   40.5226 H   0  0  0  0  0  0  0  0  0  0  0  0
   -0.5848   -4.8353   38.0830 H   0  0  0  0  0  0  0  0  0  0  0  0
   -1.4290   -8.5471   33.0153 H   0  0  0  0  0  0  0  0  0  0  0  0
    2.9872   -0.8978   34.5211 H   0  0  0  0  0  0  0  0  0  0  0  0
    1.0019   -2.1987   37.5281 H   0  0  0  0  0  0  0  0  0  0  0  0
    1.8736   -0.7017   37.1548 H   0  0  0  0  0  0  0  0  0  0  0  0
    2.6590   -1.9639   38.1202 H   0  0  0  0  0  0  0  0  0  0  0  0
  1  2  1  0
  2  3  1  0
  3  4  2  0
  3  5  1  0
  5  6  1  0
  6  7  1  0
  7  8  2  3
  8  9  1  0
  9 10  1  0
 10 11  1  0
 11 12  1  0
 12 13  2  0
 13 14  1  0
 14 15  2  0
 15 16  1  0
 16 17  1  0
 17 18  1  0
 18 19  2  0
 19 20  1  0
 20 21  2  0
 21 22  1  0
 22 23  2  0
 15 24  1  0
 24 25  1  0
 25 26  2  0
 26 27  1  0
 27 28  2  0
  7 29  1  0
 29 30  1  0
 30 31  2  0
 31 32  1  0
 31 33  1  0
 33 34  1  0
 28 12  1  0
 34 29  2  0
 23 18  1  0
 28 24  1  0
  1 35  1  0
  1 36  1  0
  1 37  1  0
  5 38  1  0
  5 39  1  0
  6 40  1  0
  9 41  1  0
  9 42  1  0
 10 43  1  0
 10 44  1  0
 11 45  1  0
 13 46  1  0
 14 47  1  0
 17 48  1  0
 17 49  1  0
 19 50  1  0
 20 51  1  0
 22 52  1  0
 23 53  1  0
 25 54  1  0
 30 55  1  0
 32 56  1  0
 32 57  1  0
 32 58  1  0
M  END
>  <Energy>  (61) 
120.13757279448707

>  <compound_id>  (61) 
2366

>  <target_id>  (61) 
1

>  <reference_id>  (61) 
164

>  <inspiration_ids>  (61) 
[164, 56]

>  <energy_score>  (61) 
-59.25187523245815

>  <distance_score>  (61) 
1.6261185500838504

>  <path>  (61) 
/opt/xchem-fragalysis-2/maxwin/BulkDock/SCRATCH/505736/C2366-P164/C2366-P164.minimised.mol

>  <scratch_subdir>  (61) 
/opt/xchem-fragalysis-2/maxwin/BulkDock/SCRATCH/505736/C2366-P164

>  <fragmenstein_runtime>  (61) 
6.174047470092773

>  <fragmenstein_outcome>  (61) 
too moved

>  <fragmenstein_mode>  (61) 
expansion

>  <fragmenstein_error>  (61) 


$$$$
C2366-P56
     RDKit          3D

 58 61  0  0  0  0  0  0  0  0999 V2000
    5.4370   -5.8338   34.2155 C   0  0  0  0  0  0  0  0  0  0  0  0
    5.1587   -4.4373   34.1217 O   0  0  0  0  0  0  0  0  0  0  0  0
    5.4112   -3.8774   32.9016 C   0  0  0  0  0  0  0  0  0  0  0  0
    5.9248   -4.4674   31.9568 O   0  0  0  0  0  0  0  0  0  0  0  0
    5.0317   -2.3965   32.8961 C   0  0  0  0  0  0  0  0  0  0  0  0
    3.8678   -2.1616   33.7048 N   0  0  0  0  0  0  0  0  0  0  0  0
    2.3561   -2.1098   33.3190 C   0  0  0  0  0  0  0  0  0  0  0  0
    1.8226   -2.1754   32.2441 N   0  0  0  0  0  0  0  0  0  0  0  0
    0.4395   -2.3391   31.8357 C   0  0  0  0  0  0  0  0  0  0  0  0
    0.3550   -3.0571   30.4493 C   0  0  0  0  0  0  0  0  0  0  0  0
    0.6056   -4.5262   30.3948 N   0  0  0  0  0  0  0  0  0  0  0  0
    0.6280   -5.3292   31.5296 C   0  0  0  0  0  0  0  0  0  0  0  0
    1.5849   -5.1618   32.4633 C   0  0  0  0  0  0  0  0  0  0  0  0
    1.4146   -5.5944   33.8328 C   0  0  0  0  0  0  0  0  0  0  0  0
    0.3285   -6.3132   34.1692 C   0  0  0  0  0  0  0  0  0  0  0  0
   -0.0457   -6.6839   35.8234 S   0  0  0  0  0  0  0  0  0  0  0  0
    0.2934   -5.0700   36.6476 C   0  0  0  0  0  0  0  0  0  0  0  0
    0.1711   -5.0261   38.1559 C   0  0  0  0  0  0  0  0  0  0  0  0
   -0.7999   -5.7276   38.8431 C   0  0  0  0  0  0  0  0  0  0  0  0
   -0.8164   -5.7471   40.2345 C   0  0  0  0  0  0  0  0  0  0  0  0
    0.0695   -5.0911   40.9973 N   0  0  0  0  0  0  0  0  0  0  0  0
    0.9657   -4.3444   40.3287 C   0  0  0  0  0  0  0  0  0  0  0  0
    1.0469   -4.2770   38.9421 C   0  0  0  0  0  0  0  0  0  0  0  0
   -0.4848   -6.7691   33.1180 N   0  0  0  0  0  0  0  0  0  0  0  0
   -1.4873   -7.7044   33.0742 C   0  0  0  0  0  0  0  0  0  0  0  0
   -1.9291   -7.8548   31.8443 N   0  0  0  0  0  0  0  0  0  0  0  0
   -1.2364   -6.9730   31.0443 N   0  0  0  0  0  0  0  0  0  0  0  0
   -0.3620   -6.3349   31.8019 C   0  0  0  0  0  0  0  0  0  0  0  0
    1.6295   -2.0254   34.6209 C   0  0  0  0  0  0  0  0  0  0  0  0
    0.3458   -1.5256   34.9418 C   0  0  0  0  0  0  0  0  0  0  0  0
    0.2474   -1.6046   36.3097 C   0  0  0  0  0  0  0  0  0  0  0  0
   -0.7934   -1.2479   37.2900 C   0  0  0  0  0  0  0  0  0  0  0  0
    1.3875   -2.1346   36.7990 O   0  0  0  0  0  0  0  0  0  0  0  0
    2.2387   -2.4258   35.7599 N   0  0  0  0  0  0  0  0  0  0  0  0
    4.9288   -6.3849   33.4200 H   0  0  0  0  0  0  0  0  0  0  0  0
    5.0609   -6.1930   35.1769 H   0  0  0  0  0  0  0  0  0  0  0  0
    6.5167   -6.0047   34.1747 H   0  0  0  0  0  0  0  0  0  0  0  0
    5.8812   -1.8224   33.2766 H   0  0  0  0  0  0  0  0  0  0  0  0
    4.8324   -2.0943   31.8635 H   0  0  0  0  0  0  0  0  0  0  0  0
    3.9585   -2.1610   34.7224 H   0  0  0  0  0  0  0  0  0  0  0  0
   -0.0055   -1.3439   31.7212 H   0  0  0  0  0  0  0  0  0  0  0  0
   -0.1583   -2.8866   32.5711 H   0  0  0  0  0  0  0  0  0  0  0  0
   -0.6592   -2.8969   30.0628 H   0  0  0  0  0  0  0  0  0  0  0  0
    1.0446   -2.5780   29.7452 H   0  0  0  0  0  0  0  0  0  0  0  0
   -0.0014   -4.9537   29.6904 H   0  0  0  0  0  0  0  0  0  0  0  0
    2.4396   -4.5314   32.2540 H   0  0  0  0  0  0  0  0  0  0  0  0
    2.1655   -5.2527   34.5362 H   0  0  0  0  0  0  0  0  0  0  0  0
   -0.3970   -4.3365   36.2227 H   0  0  0  0  0  0  0  0  0  0  0  0
    1.3171   -4.7893   36.4034 H   0  0  0  0  0  0  0  0  0  0  0  0
   -1.5044   -6.2902   38.2700 H   0  0  0  0  0  0  0  0  0  0  0  0
   -1.5568   -6.3055   40.7958 H   0  0  0  0  0  0  0  0  0  0  0  0
    1.6722   -3.7987   40.9474 H   0  0  0  0  0  0  0  0  0  0  0  0
    1.8626   -3.7139   38.5004 H   0  0  0  0  0  0  0  0  0  0  0  0
   -1.8269   -8.2517   33.9410 H   0  0  0  0  0  0  0  0  0  0  0  0
   -0.3956   -1.1178   34.2722 H   0  0  0  0  0  0  0  0  0  0  0  0
   -1.4065   -2.1219   37.5299 H   0  0  0  0  0  0  0  0  0  0  0  0
   -1.4506   -0.4680   36.8933 H   0  0  0  0  0  0  0  0  0  0  0  0
   -0.3473   -0.8749   38.2171 H   0  0  0  0  0  0  0  0  0  0  0  0
  1  2  1  0
  2  3  1  0
  3  4  2  0
  3  5  1  0
  5  6  1  0
  6  7  1  0
  7  8  2  3
  8  9  1  0
  9 10  1  0
 10 11  1  0
 11 12  1  0
 12 13  2  0
 13 14  1  0
 14 15  2  0
 15 16  1  0
 16 17  1  0
 17 18  1  0
 18 19  2  0
 19 20  1  0
 20 21  2  0
 21 22  1  0
 22 23  2  0
 15 24  1  0
 24 25  1  0
 25 26  2  0
 26 27  1  0
 27 28  2  0
  7 29  1  0
 29 30  1  0
 30 31  2  0
 31 32  1  0
 31 33  1  0
 33 34  1  0
 28 12  1  0
 34 29  2  0
 23 18  1  0
 28 24  1  0
  1 35  1  0
  1 36  1  0
  1 37  1  0
  5 38  1  0
  5 39  1  0
  6 40  1  0
  9 41  1  0
  9 42  1  0
 10 43  1  0
 10 44  1  0
 11 45  1  0
 13 46  1  0
 14 47  1  0
 17 48  1  0
 17 49  1  0
 19 50  1  0
 20 51  1  0
 22 52  1  0
 23 53  1  0
 25 54  1  0
 30 55  1  0
 32 56  1  0
 32 57  1  0
 32 58  1  0
M  END
>  <Energy>  (62) 
148.42284324961082

>  <compound_id>  (62) 
2366

>  <target_id>  (62) 
1

>  <reference_id>  (62) 
56

>  <inspiration_ids>  (62) 
[164, 56]

>  <energy_score>  (62) 
-37.26557237477289

>  <distance_score>  (62) 
1.7970258637746754

>  <path>  (62) 
/opt/xchem-fragalysis-2/maxwin/BulkDock/SCRATCH/505736/C2366-P56/C2366-P56.minimised.mol

>  <scratch_subdir>  (62) 
/opt/xchem-fragalysis-2/maxwin/BulkDock/SCRATCH/505736/C2366-P56

>  <fragmenstein_runtime>  (62) 
4.184134006500244

>  <fragmenstein_outcome>  (62) 
too moved

>  <fragmenstein_mode>  (62) 
expansion

>  <fragmenstein_error>  (62) 


$$$$
C2370-P164
     RDKit          3D

 52 55  0  0  0  0  0  0  0  0999 V2000
    2.1015    1.5184   34.8890 C   0  0  0  0  0  0  0  0  0  0  0  0
    2.8665    0.6280   33.5546 S   0  0  0  0  0  0  0  0  0  0  0  0
    1.9124    0.4817   32.4819 O   0  0  0  0  0  0  0  0  0  0  0  0
    4.1886    1.1703   33.3438 O   0  0  0  0  0  0  0  0  0  0  0  0
    3.0882   -0.8778   34.2965 N   0  0  0  0  0  0  0  0  0  0  0  0
    3.1201   -2.1066   33.4414 C   0  0  0  0  0  0  0  0  0  0  0  0
    3.7271   -3.1977   34.3326 C   0  0  0  0  0  0  0  0  0  0  0  0
    3.7592   -4.5775   33.6968 C   0  0  0  0  0  0  0  0  0  0  0  0
    2.7646   -4.7645   32.5617 C   0  0  0  0  0  0  0  0  0  0  0  0
    1.4190   -4.0559   32.7909 C   0  0  0  0  0  0  0  0  0  0  0  0
    0.4709   -4.4134   31.5981 C   0  0  0  0  0  0  0  0  0  0  0  0
   -0.1072   -5.8010   31.7134 C   0  0  0  0  0  0  0  0  0  0  0  0
   -0.5668   -6.5881   30.7628 N   0  0  0  0  0  0  0  0  0  0  0  0
   -1.1293   -7.6989   31.3556 N   0  0  0  0  0  0  0  0  0  0  0  0
   -0.9428   -7.5922   32.6512 C   0  0  0  0  0  0  0  0  0  0  0  0
   -0.2596   -6.4484   32.9144 N   0  0  0  0  0  0  0  0  0  0  0  0
    0.4162   -6.0319   34.1340 C   0  0  0  0  0  0  0  0  0  0  0  0
   -0.4339   -6.5141   35.6717 S   0  0  0  0  0  0  0  0  0  0  0  0
    0.9188   -6.2035   36.8504 C   0  0  0  0  0  0  0  0  0  0  0  0
    0.5319   -6.5612   38.2548 C   0  0  0  0  0  0  0  0  0  0  0  0
    0.7871   -7.8353   38.7670 C   0  0  0  0  0  0  0  0  0  0  0  0
    0.4058   -8.1206   40.0679 C   0  0  0  0  0  0  0  0  0  0  0  0
   -0.1943   -7.2266   40.8821 N   0  0  0  0  0  0  0  0  0  0  0  0
   -0.4434   -6.0043   40.3680 C   0  0  0  0  0  0  0  0  0  0  0  0
   -0.1073   -5.6293   39.0778 C   0  0  0  0  0  0  0  0  0  0  0  0
    0.6909   -4.5177   34.0922 C   0  0  0  0  0  0  0  0  0  0  0  0
    1.7168   -2.5059   32.8862 C   0  0  0  0  0  0  0  0  0  0  0  0
    1.1570    1.0333   35.1427 H   0  0  0  0  0  0  0  0  0  0  0  0
    1.9144    2.5392   34.5487 H   0  0  0  0  0  0  0  0  0  0  0  0
    2.7798    1.5311   35.7441 H   0  0  0  0  0  0  0  0  0  0  0  0
    3.9492   -0.7963   34.8463 H   0  0  0  0  0  0  0  0  0  0  0  0
    3.8080   -1.9326   32.6040 H   0  0  0  0  0  0  0  0  0  0  0  0
    4.7493   -2.9195   34.6227 H   0  0  0  0  0  0  0  0  0  0  0  0
    3.1753   -3.2486   35.2802 H   0  0  0  0  0  0  0  0  0  0  0  0
    4.7662   -4.7776   33.3097 H   0  0  0  0  0  0  0  0  0  0  0  0
    3.5876   -5.3318   34.4746 H   0  0  0  0  0  0  0  0  0  0  0  0
    2.6334   -5.8368   32.3833 H   0  0  0  0  0  0  0  0  0  0  0  0
    3.2171   -4.3741   31.6390 H   0  0  0  0  0  0  0  0  0  0  0  0
    0.9969   -4.3130   30.6414 H   0  0  0  0  0  0  0  0  0  0  0  0
   -0.3690   -3.7070   31.5763 H   0  0  0  0  0  0  0  0  0  0  0  0
   -1.2593   -8.3049   33.3988 H   0  0  0  0  0  0  0  0  0  0  0  0
    1.3617   -6.5865   34.1231 H   0  0  0  0  0  0  0  0  0  0  0  0
    1.2071   -5.1488   36.8332 H   0  0  0  0  0  0  0  0  0  0  0  0
    1.7985   -6.7838   36.5498 H   0  0  0  0  0  0  0  0  0  0  0  0
    1.2598   -8.6085   38.1732 H   0  0  0  0  0  0  0  0  0  0  0  0
    0.5704   -9.1077   40.4946 H   0  0  0  0  0  0  0  0  0  0  0  0
   -0.9510   -5.3153   41.0374 H   0  0  0  0  0  0  0  0  0  0  0  0
   -0.3556   -4.6332   38.7267 H   0  0  0  0  0  0  0  0  0  0  0  0
    1.2721   -4.2098   34.9616 H   0  0  0  0  0  0  0  0  0  0  0  0
   -0.2636   -3.9747   34.1643 H   0  0  0  0  0  0  0  0  0  0  0  0
    0.9256   -2.0215   33.4727 H   0  0  0  0  0  0  0  0  0  0  0  0
    1.6359   -2.0800   31.8773 H   0  0  0  0  0  0  0  0  0  0  0  0
  1  2  1  0
  2  3  2  0
  2  4  2  0
  2  5  1  0
  5  6  1  0
  6  7  1  0
  7  8  1  0
  8  9  1  0
  9 10  1  0
 10 11  1  0
 11 12  1  0
 12 13  2  0
 13 14  1  0
 14 15  2  0
 15 16  1  0
 16 17  1  0
 17 18  1  0
 18 19  1  0
 19 20  1  0
 20 21  2  0
 21 22  1  0
 22 23  2  0
 23 24  1  0
 24 25  2  0
 17 26  1  0
 10 27  1  0
 27  6  1  0
 26 10  1  0
 16 12  1  0
 25 20  1  0
  1 28  1  0
  1 29  1  0
  1 30  1  0
  5 31  1  0
  6 32  1  0
  7 33  1  0
  7 34  1  0
  8 35  1  0
  8 36  1  0
  9 37  1  0
  9 38  1  0
 11 39  1  0
 11 40  1  0
 15 41  1  0
 17 42  1  0
 19 43  1  0
 19 44  1  0
 21 45  1  0
 22 46  1  0
 24 47  1  0
 25 48  1  0
 26 49  1  0
 26 50  1  0
 27 51  1  0
 27 52  1  0
M  END
>  <Energy>  (63) 
-15.576798522149264

>  <compound_id>  (63) 
2370

>  <target_id>  (63) 
1

>  <reference_id>  (63) 
164

>  <inspiration_ids>  (63) 
[164, 128]

>  <energy_score>  (63) 
-68.02839694085516

>  <distance_score>  (63) 
1.1198291395804925

>  <path>  (63) 
/opt/xchem-fragalysis-2/maxwin/BulkDock/SCRATCH/505736/C2370-P164/C2370-P164.minimised.mol

>  <scratch_subdir>  (63) 
/opt/xchem-fragalysis-2/maxwin/BulkDock/SCRATCH/505736/C2370-P164

>  <fragmenstein_runtime>  (63) 
3.1738898754119873

>  <fragmenstein_outcome>  (63) 
too moved

>  <fragmenstein_mode>  (63) 
expansion

>  <fragmenstein_error>  (63) 


$$$$
C2370-P128
     RDKit          3D

 52 55  0  0  0  0  0  0  0  0999 V2000
    2.0887    1.5469   34.8775 C   0  0  0  0  0  0  0  0  0  0  0  0
    2.8618    0.6542   33.5496 S   0  0  0  0  0  0  0  0  0  0  0  0
    1.9194    0.5190   32.4653 O   0  0  0  0  0  0  0  0  0  0  0  0
    4.1906    1.1867   33.3563 O   0  0  0  0  0  0  0  0  0  0  0  0
    3.0630   -0.8537   34.2913 N   0  0  0  0  0  0  0  0  0  0  0  0
    3.0783   -2.0837   33.4379 C   0  0  0  0  0  0  0  0  0  0  0  0
    3.6710   -3.1799   34.3324 C   0  0  0  0  0  0  0  0  0  0  0  0
    3.6881   -4.5597   33.6980 C   0  0  0  0  0  0  0  0  0  0  0  0
    2.6913   -4.7348   32.5631 C   0  0  0  0  0  0  0  0  0  0  0  0
    1.3545   -4.0121   32.7867 C   0  0  0  0  0  0  0  0  0  0  0  0
    0.4038   -4.3653   31.5940 C   0  0  0  0  0  0  0  0  0  0  0  0
   -0.1762   -5.7535   31.7074 C   0  0  0  0  0  0  0  0  0  0  0  0
   -0.6285   -6.5416   30.7535 N   0  0  0  0  0  0  0  0  0  0  0  0
   -1.1690   -7.6656   31.3427 N   0  0  0  0  0  0  0  0  0  0  0  0
   -0.9855   -7.5608   32.6397 C   0  0  0  0  0  0  0  0  0  0  0  0
   -0.3296   -6.4021   32.9086 N   0  0  0  0  0  0  0  0  0  0  0  0
    0.3389   -5.9808   34.1304 C   0  0  0  0  0  0  0  0  0  0  0  0
   -0.5176   -6.4295   35.6721 S   0  0  0  0  0  0  0  0  0  0  0  0
    0.8595   -6.1675   36.8312 C   0  0  0  0  0  0  0  0  0  0  0  0
    0.4962   -6.5186   38.2430 C   0  0  0  0  0  0  0  0  0  0  0  0
    0.7454   -7.7970   38.7442 C   0  0  0  0  0  0  0  0  0  0  0  0
    0.4016   -8.0771   40.0557 C   0  0  0  0  0  0  0  0  0  0  0  0
   -0.1624   -7.1801   40.8912 N   0  0  0  0  0  0  0  0  0  0  0  0
   -0.4133   -5.9545   40.3836 C   0  0  0  0  0  0  0  0  0  0  0  0
   -0.1077   -5.5805   39.0848 C   0  0  0  0  0  0  0  0  0  0  0  0
    0.6205   -4.4669   34.0846 C   0  0  0  0  0  0  0  0  0  0  0  0
    1.6699   -2.4659   32.8821 C   0  0  0  0  0  0  0  0  0  0  0  0
    1.1375    1.0688   35.1190 H   0  0  0  0  0  0  0  0  0  0  0  0
    1.9138    2.5701   34.5380 H   0  0  0  0  0  0  0  0  0  0  0  0
    2.7571    1.5519   35.7405 H   0  0  0  0  0  0  0  0  0  0  0  0
    3.9239   -0.7835   34.8426 H   0  0  0  0  0  0  0  0  0  0  0  0
    3.7690   -1.9203   32.6007 H   0  0  0  0  0  0  0  0  0  0  0  0
    4.6958   -2.9134   34.6243 H   0  0  0  0  0  0  0  0  0  0  0  0
    3.1164   -3.2233   35.2787 H   0  0  0  0  0  0  0  0  0  0  0  0
    4.6928   -4.7712   33.3111 H   0  0  0  0  0  0  0  0  0  0  0  0
    3.5080   -5.3116   34.4762 H   0  0  0  0  0  0  0  0  0  0  0  0
    2.5418   -5.8048   32.3913 H   0  0  0  0  0  0  0  0  0  0  0  0
    3.1493   -4.3545   31.6390 H   0  0  0  0  0  0  0  0  0  0  0  0
    0.9297   -4.2646   30.6373 H   0  0  0  0  0  0  0  0  0  0  0  0
   -0.4345   -3.6571   31.5741 H   0  0  0  0  0  0  0  0  0  0  0  0
   -1.2846   -8.2830   33.3863 H   0  0  0  0  0  0  0  0  0  0  0  0
    1.2814   -6.5405   34.1292 H   0  0  0  0  0  0  0  0  0  0  0  0
    1.1796   -5.1219   36.8135 H   0  0  0  0  0  0  0  0  0  0  0  0
    1.7176   -6.7700   36.5116 H   0  0  0  0  0  0  0  0  0  0  0  0
    1.1755   -8.5765   38.1261 H   0  0  0  0  0  0  0  0  0  0  0  0
    0.5668   -9.0647   40.4752 H   0  0  0  0  0  0  0  0  0  0  0  0
   -0.8935   -5.2594   41.0667 H   0  0  0  0  0  0  0  0  0  0  0  0
   -0.3519   -4.5810   38.7407 H   0  0  0  0  0  0  0  0  0  0  0  0
    1.1988   -4.1572   34.9555 H   0  0  0  0  0  0  0  0  0  0  0  0
   -0.3320   -3.9194   34.1508 H   0  0  0  0  0  0  0  0  0  0  0  0
    0.8846   -1.9723   33.4690 H   0  0  0  0  0  0  0  0  0  0  0  0
    1.5939   -2.0392   31.8732 H   0  0  0  0  0  0  0  0  0  0  0  0
  1  2  1  0
  2  3  2  0
  2  4  2  0
  2  5  1  0
  5  6  1  0
  6  7  1  0
  7  8  1  0
  8  9  1  0
  9 10  1  0
 10 11  1  0
 11 12  1  0
 12 13  2  0
 13 14  1  0
 14 15  2  0
 15 16  1  0
 16 17  1  0
 17 18  1  0
 18 19  1  0
 19 20  1  0
 20 21  2  0
 21 22  1  0
 22 23  2  0
 23 24  1  0
 24 25  2  0
 17 26  1  0
 10 27  1  0
 27  6  1  0
 26 10  1  0
 16 12  1  0
 25 20  1  0
  1 28  1  0
  1 29  1  0
  1 30  1  0
  5 31  1  0
  6 32  1  0
  7 33  1  0
  7 34  1  0
  8 35  1  0
  8 36  1  0
  9 37  1  0
  9 38  1  0
 11 39  1  0
 11 40  1  0
 15 41  1  0
 17 42  1  0
 19 43  1  0
 19 44  1  0
 21 45  1  0
 22 46  1  0
 24 47  1  0
 25 48  1  0
 26 49  1  0
 26 50  1  0
 27 51  1  0
 27 52  1  0
M  END
>  <Energy>  (64) 
-15.511690920268551

>  <compound_id>  (64) 
2370

>  <target_id>  (64) 
1

>  <reference_id>  (64) 
128

>  <inspiration_ids>  (64) 
[164, 128]

>  <energy_score>  (64) 
-67.96328933897394

>  <distance_score>  (64) 
1.1197624511186413

>  <path>  (64) 
/opt/xchem-fragalysis-2/maxwin/BulkDock/SCRATCH/505736/C2370-P128/C2370-P128.minimised.mol

>  <scratch_subdir>  (64) 
/opt/xchem-fragalysis-2/maxwin/BulkDock/SCRATCH/505736/C2370-P128

>  <fragmenstein_runtime>  (64) 
3.063502788543701

>  <fragmenstein_outcome>  (64) 
too moved

>  <fragmenstein_mode>  (64) 
expansion

>  <fragmenstein_error>  (64) 


$$$$
C2371-P164
     RDKit          3D

 52 55  0  0  0  0  0  0  0  0999 V2000
    4.4904   -2.5037   33.3921 C   0  0  0  0  0  0  0  0  0  0  0  0
    3.7927   -2.5345   34.7317 N   0  0  0  0  0  0  0  0  0  0  0  0
    3.8554   -1.0179   34.5580 C   0  0  0  0  0  0  0  0  0  0  0  0
    3.0242   -0.3313   33.4756 C   0  0  0  0  0  0  0  0  0  0  0  0
    3.6583    0.3493   32.4230 C   0  0  0  0  0  0  0  0  0  0  0  0
    2.9135    0.8535   31.3563 C   0  0  0  0  0  0  0  0  0  0  0  0
    1.5294    0.6983   31.3361 C   0  0  0  0  0  0  0  0  0  0  0  0
    0.8853    0.0675   32.3963 C   0  0  0  0  0  0  0  0  0  0  0  0
    1.6267   -0.4281   33.4678 C   0  0  0  0  0  0  0  0  0  0  0  0
    2.6510   -3.4500   34.6823 C   0  0  0  0  0  0  0  0  0  0  0  0
    1.5282   -3.2469   34.4105 O   0  0  0  0  0  0  0  0  0  0  0  0
    3.3366   -4.6916   34.9735 N   0  0  0  0  0  0  0  0  0  0  0  0
    2.8781   -6.0510   34.9260 C   0  0  0  0  0  0  0  0  0  0  0  0
    1.7954   -6.2314   33.8722 C   0  0  0  0  0  0  0  0  0  0  0  0
    2.1133   -5.7434   32.5138 C   0  0  0  0  0  0  0  0  0  0  0  0
    1.2992   -5.9297   31.4606 C   0  0  0  0  0  0  0  0  0  0  0  0
    0.1202   -6.6871   31.6304 C   0  0  0  0  0  0  0  0  0  0  0  0
   -0.7415   -7.1843   30.7707 N   0  0  0  0  0  0  0  0  0  0  0  0
   -1.6825   -7.8849   31.4801 N   0  0  0  0  0  0  0  0  0  0  0  0
   -1.3721   -7.7876   32.7539 C   0  0  0  0  0  0  0  0  0  0  0  0
   -0.2193   -7.0622   32.9211 N   0  0  0  0  0  0  0  0  0  0  0  0
    0.5766   -6.8044   34.0590 C   0  0  0  0  0  0  0  0  0  0  0  0
    0.0246   -7.4019   35.5927 S   0  0  0  0  0  0  0  0  0  0  0  0
   -0.1004   -5.8932   36.6065 C   0  0  0  0  0  0  0  0  0  0  0  0
   -0.0933   -6.1613   38.0973 C   0  0  0  0  0  0  0  0  0  0  0  0
    0.5451   -7.2584   38.6938 C   0  0  0  0  0  0  0  0  0  0  0  0
    0.4844   -7.4119   40.0716 C   0  0  0  0  0  0  0  0  0  0  0  0
   -0.1297   -6.5392   40.8953 N   0  0  0  0  0  0  0  0  0  0  0  0
   -0.7160   -5.4724   40.3147 C   0  0  0  0  0  0  0  0  0  0  0  0
   -0.7168   -5.2401   38.9469 C   0  0  0  0  0  0  0  0  0  0  0  0
    5.4273   -1.9305   33.3202 H   0  0  0  0  0  0  0  0  0  0  0  0
    3.8078   -2.3998   32.5380 H   0  0  0  0  0  0  0  0  0  0  0  0
    4.8584   -3.5323   33.2520 H   0  0  0  0  0  0  0  0  0  0  0  0
    4.8784   -0.6173   34.6575 H   0  0  0  0  0  0  0  0  0  0  0  0
    3.3919   -0.6710   35.4955 H   0  0  0  0  0  0  0  0  0  0  0  0
    4.7395    0.4655   32.4094 H   0  0  0  0  0  0  0  0  0  0  0  0
    3.4113    1.3628   30.5350 H   0  0  0  0  0  0  0  0  0  0  0  0
    0.9489    1.0820   30.5006 H   0  0  0  0  0  0  0  0  0  0  0  0
   -0.1964   -0.0422   32.3900 H   0  0  0  0  0  0  0  0  0  0  0  0
    1.0993   -0.9160   34.2843 H   0  0  0  0  0  0  0  0  0  0  0  0
    4.2883   -4.4872   35.2489 H   0  0  0  0  0  0  0  0  0  0  0  0
    2.5842   -6.3327   35.9376 H   0  0  0  0  0  0  0  0  0  0  0  0
    3.7433   -6.6706   34.6673 H   0  0  0  0  0  0  0  0  0  0  0  0
    3.0235   -5.1664   32.3774 H   0  0  0  0  0  0  0  0  0  0  0  0
    1.5332   -5.5359   30.4778 H   0  0  0  0  0  0  0  0  0  0  0  0
   -1.9130   -8.2408   33.5703 H   0  0  0  0  0  0  0  0  0  0  0  0
    0.7077   -5.1917   36.3886 H   0  0  0  0  0  0  0  0  0  0  0  0
   -1.0421   -5.4070   36.3269 H   0  0  0  0  0  0  0  0  0  0  0  0
    1.0659   -8.0168   38.1193 H   0  0  0  0  0  0  0  0  0  0  0  0
    0.9381   -8.2726   40.5568 H   0  0  0  0  0  0  0  0  0  0  0  0
   -1.2134   -4.7878   40.9959 H   0  0  0  0  0  0  0  0  0  0  0  0
   -1.2205   -4.3601   38.5580 H   0  0  0  0  0  0  0  0  0  0  0  0
  1  2  1  0
  2  3  1  0
  3  4  1  0
  4  5  2  0
  5  6  1  0
  6  7  2  0
  7  8  1  0
  8  9  2  0
  2 10  1  0
 10 11  2  0
 10 12  1  0
 12 13  1  0
 13 14  1  0
 14 15  1  0
 15 16  2  0
 16 17  1  0
 17 18  2  0
 18 19  1  0
 19 20  2  0
 20 21  1  0
 21 22  1  0
 22 23  1  0
 23 24  1  0
 24 25  1  0
 25 26  2  0
 26 27  1  0
 27 28  2  0
 28 29  1  0
 29 30  2  0
  9  4  1  0
 22 14  2  0
 30 25  1  0
 21 17  1  0
  1 31  1  0
  1 32  1  0
  1 33  1  0
  3 34  1  0
  3 35  1  0
  5 36  1  0
  6 37  1  0
  7 38  1  0
  8 39  1  0
  9 40  1  0
 12 41  1  0
 13 42  1  0
 13 43  1  0
 15 44  1  0
 16 45  1  0
 20 46  1  0
 24 47  1  0
 24 48  1  0
 26 49  1  0
 27 50  1  0
 29 51  1  0
 30 52  1  0
M  END
>  <Energy>  (65) 
77.134374963454292

>  <compound_id>  (65) 
2371

>  <target_id>  (65) 
1

>  <reference_id>  (65) 
164

>  <inspiration_ids>  (65) 
[164, 129]

>  <energy_score>  (65) 
52.750417934851455

>  <distance_score>  (65) 
1.8248389283050976

>  <path>  (65) 
/opt/xchem-fragalysis-2/maxwin/BulkDock/SCRATCH/505736/C2371-P164/C2371-P164.minimised.mol

>  <scratch_subdir>  (65) 
/opt/xchem-fragalysis-2/maxwin/BulkDock/SCRATCH/505736/C2371-P164

>  <fragmenstein_runtime>  (65) 
7.432697772979736

>  <fragmenstein_outcome>  (65) 
too moved

>  <fragmenstein_mode>  (65) 
expansion

>  <fragmenstein_error>  (65) 


$$$$
C2371-P129
     RDKit          3D

 52 55  0  0  0  0  0  0  0  0999 V2000
    4.4406   -2.4368   33.3503 C   0  0  0  0  0  0  0  0  0  0  0  0
    3.7579   -2.4568   34.6979 N   0  0  0  0  0  0  0  0  0  0  0  0
    3.8433   -0.9415   34.5239 C   0  0  0  0  0  0  0  0  0  0  0  0
    3.0158   -0.2414   33.4474 C   0  0  0  0  0  0  0  0  0  0  0  0
    3.6538    0.4291   32.3907 C   0  0  0  0  0  0  0  0  0  0  0  0
    2.9104    0.9417   31.3271 C   0  0  0  0  0  0  0  0  0  0  0  0
    1.5243    0.8051   31.3143 C   0  0  0  0  0  0  0  0  0  0  0  0
    0.8771    0.1850   32.3790 C   0  0  0  0  0  0  0  0  0  0  0  0
    1.6172   -0.3187   33.4475 C   0  0  0  0  0  0  0  0  0  0  0  0
    2.6005   -3.3536   34.6614 C   0  0  0  0  0  0  0  0  0  0  0  0
    1.4783   -3.1322   34.4028 O   0  0  0  0  0  0  0  0  0  0  0  0
    3.2689   -4.6056   34.9442 N   0  0  0  0  0  0  0  0  0  0  0  0
    2.7881   -5.9572   34.9017 C   0  0  0  0  0  0  0  0  0  0  0  0
    1.7110   -6.1392   33.8420 C   0  0  0  0  0  0  0  0  0  0  0  0
    2.0116   -5.6221   32.4916 C   0  0  0  0  0  0  0  0  0  0  0  0
    1.2116   -5.8313   31.4322 C   0  0  0  0  0  0  0  0  0  0  0  0
    0.0646   -6.6386   31.5887 C   0  0  0  0  0  0  0  0  0  0  0  0
   -0.7702   -7.1623   30.7183 N   0  0  0  0  0  0  0  0  0  0  0  0
   -1.6840   -7.9090   31.4156 N   0  0  0  0  0  0  0  0  0  0  0  0
   -1.3838   -7.8139   32.6926 C   0  0  0  0  0  0  0  0  0  0  0  0
   -0.2664   -7.0384   32.8745 N   0  0  0  0  0  0  0  0  0  0  0  0
    0.5116   -6.7546   34.0189 C   0  0  0  0  0  0  0  0  0  0  0  0
   -0.0242   -7.3755   35.5471 S   0  0  0  0  0  0  0  0  0  0  0  0
   -0.1982   -5.8807   36.5702 C   0  0  0  0  0  0  0  0  0  0  0  0
   -0.1111   -6.1401   38.0610 C   0  0  0  0  0  0  0  0  0  0  0  0
    0.5492   -7.2377   38.6304 C   0  0  0  0  0  0  0  0  0  0  0  0
    0.5606   -7.3817   40.0101 C   0  0  0  0  0  0  0  0  0  0  0  0
   -0.0078   -6.5051   40.8615 N   0  0  0  0  0  0  0  0  0  0  0  0
   -0.6198   -5.4392   40.3045 C   0  0  0  0  0  0  0  0  0  0  0  0
   -0.6881   -5.2128   38.9370 C   0  0  0  0  0  0  0  0  0  0  0  0
    5.3850   -1.8775   33.2670 H   0  0  0  0  0  0  0  0  0  0  0  0
    3.7498   -2.3240   32.5039 H   0  0  0  0  0  0  0  0  0  0  0  0
    4.7922   -3.4707   33.2072 H   0  0  0  0  0  0  0  0  0  0  0  0
    4.8736   -0.5583   34.6152 H   0  0  0  0  0  0  0  0  0  0  0  0
    3.3926   -0.5870   35.4648 H   0  0  0  0  0  0  0  0  0  0  0  0
    4.7364    0.5295   32.3707 H   0  0  0  0  0  0  0  0  0  0  0  0
    3.4107    1.4422   30.5021 H   0  0  0  0  0  0  0  0  0  0  0  0
    0.9447    1.1947   30.4810 H   0  0  0  0  0  0  0  0  0  0  0  0
   -0.2060    0.0892   32.3782 H   0  0  0  0  0  0  0  0  0  0  0  0
    1.0872   -0.7989   34.2670 H   0  0  0  0  0  0  0  0  0  0  0  0
    4.2266   -4.4168   35.2085 H   0  0  0  0  0  0  0  0  0  0  0  0
    2.4849   -6.2239   35.9145 H   0  0  0  0  0  0  0  0  0  0  0  0
    3.6462   -6.5914   34.6539 H   0  0  0  0  0  0  0  0  0  0  0  0
    2.8970   -5.0066   32.3637 H   0  0  0  0  0  0  0  0  0  0  0  0
    1.4338   -5.4183   30.4545 H   0  0  0  0  0  0  0  0  0  0  0  0
   -1.9062   -8.3019   33.5017 H   0  0  0  0  0  0  0  0  0  0  0  0
    0.5536   -5.1298   36.3158 H   0  0  0  0  0  0  0  0  0  0  0  0
   -1.1796   -5.4539   36.3335 H   0  0  0  0  0  0  0  0  0  0  0  0
    1.0272   -8.0062   38.0321 H   0  0  0  0  0  0  0  0  0  0  0  0
    1.0385   -8.2394   40.4746 H   0  0  0  0  0  0  0  0  0  0  0  0
   -1.0801   -4.7485   41.0056 H   0  0  0  0  0  0  0  0  0  0  0  0
   -1.2080   -4.3335   38.5683 H   0  0  0  0  0  0  0  0  0  0  0  0
  1  2  1  0
  2  3  1  0
  3  4  1  0
  4  5  2  0
  5  6  1  0
  6  7  2  0
  7  8  1  0
  8  9  2  0
  2 10  1  0
 10 11  2  0
 10 12  1  0
 12 13  1  0
 13 14  1  0
 14 15  1  0
 15 16  2  0
 16 17  1  0
 17 18  2  0
 18 19  1  0
 19 20  2  0
 20 21  1  0
 21 22  1  0
 22 23  1  0
 23 24  1  0
 24 25  1  0
 25 26  2  0
 26 27  1  0
 27 28  2  0
 28 29  1  0
 29 30  2  0
  9  4  1  0
 22 14  2  0
 30 25  1  0
 21 17  1  0
  1 31  1  0
  1 32  1  0
  1 33  1  0
  3 34  1  0
  3 35  1  0
  5 36  1  0
  6 37  1  0
  7 38  1  0
  8 39  1  0
  9 40  1  0
 12 41  1  0
 13 42  1  0
 13 43  1  0
 15 44  1  0
 16 45  1  0
 20 46  1  0
 24 47  1  0
 24 48  1  0
 26 49  1  0
 27 50  1  0
 29 51  1  0
 30 52  1  0
M  END
>  <Energy>  (66) 
77.980148504189557

>  <compound_id>  (66) 
2371

>  <target_id>  (66) 
1

>  <reference_id>  (66) 
129

>  <inspiration_ids>  (66) 
[164, 129]

>  <energy_score>  (66) 
53.59619147558517

>  <distance_score>  (66) 
1.8596461957535053

>  <path>  (66) 
/opt/xchem-fragalysis-2/maxwin/BulkDock/SCRATCH/505736/C2371-P129/C2371-P129.minimised.mol

>  <scratch_subdir>  (66) 
/opt/xchem-fragalysis-2/maxwin/BulkDock/SCRATCH/505736/C2371-P129

>  <fragmenstein_runtime>  (66) 
7.97597599029541

>  <fragmenstein_outcome>  (66) 
too moved

>  <fragmenstein_mode>  (66) 
expansion

>  <fragmenstein_error>  (66) 


$$$$
C2371-P164
     RDKit          2D

  0  0  0  0  0  0  0  0  0  0999 V2000
M  END
>  <compound_id>  (67) 
2371

>  <target_id>  (67) 
1

>  <reference_id>  (67) 
164

>  <inspiration_ids>  (67) 
[164, 130]

>  <energy_score>  (67) 
nan

>  <distance_score>  (67) 
nan

>  <path>  (67) 
/opt/xchem-fragalysis-2/maxwin/BulkDock/SCRATCH/505736/C2371-P164/C2371-P164.minimised.mol

>  <scratch_subdir>  (67) 
/opt/xchem-fragalysis-2/maxwin/BulkDock/SCRATCH/505736/C2371-P164

>  <fragmenstein_runtime>  (67) 
0.34696078300476074

>  <fragmenstein_outcome>  (67) 
too distant

>  <fragmenstein_mode>  (67) 
expansion

>  <fragmenstein_error>  (67) 
DistanceError: hit0

$$$$
C2372-P164
     RDKit          3D

 52 55  0  0  0  0  0  0  0  0999 V2000
    5.5244   -1.3373   33.1801 C   0  0  0  0  0  0  0  0  0  0  0  0
    4.6077   -1.3834   34.2620 O   0  0  0  0  0  0  0  0  0  0  0  0
    3.5370   -2.3248   34.1539 C   0  0  0  0  0  0  0  0  0  0  0  0
    2.6227   -2.1143   32.9338 C   0  0  0  0  0  0  0  0  0  0  0  0
    1.4680   -3.1378   32.8921 C   0  0  0  0  0  0  0  0  0  0  0  0
    1.9294   -4.6320   32.9349 C   0  0  0  0  0  0  0  0  0  0  0  0
    1.5303   -5.3761   31.6231 C   0  0  0  0  0  0  0  0  0  0  0  0
    0.3493   -6.2902   31.7258 C   0  0  0  0  0  0  0  0  0  0  0  0
   -0.1716   -7.0301   30.7665 N   0  0  0  0  0  0  0  0  0  0  0  0
   -1.1689   -7.8055   31.3140 N   0  0  0  0  0  0  0  0  0  0  0  0
   -1.2269   -7.5257   32.5955 C   0  0  0  0  0  0  0  0  0  0  0  0
   -0.3268   -6.5508   32.8884 N   0  0  0  0  0  0  0  0  0  0  0  0
   -0.0916   -5.8472   34.1378 C   0  0  0  0  0  0  0  0  0  0  0  0
   -0.4251   -6.8949   35.6294 S   0  0  0  0  0  0  0  0  0  0  0  0
    0.4919   -5.9740   36.9101 C   0  0  0  0  0  0  0  0  0  0  0  0
    0.2550   -6.4705   38.3057 C   0  0  0  0  0  0  0  0  0  0  0  0
    0.6438   -7.7541   38.7005 C   0  0  0  0  0  0  0  0  0  0  0  0
    0.4334   -8.1414   40.0142 C   0  0  0  0  0  0  0  0  0  0  0  0
   -0.1081   -7.3347   40.9514 N   0  0  0  0  0  0  0  0  0  0  0  0
   -0.4698   -6.0974   40.5565 C   0  0  0  0  0  0  0  0  0  0  0  0
   -0.3120   -5.6258   39.2641 C   0  0  0  0  0  0  0  0  0  0  0  0
    1.3554   -5.3588   34.1807 C   0  0  0  0  0  0  0  0  0  0  0  0
    3.4827   -4.6631   33.1414 C   0  0  0  0  0  0  0  0  0  0  0  0
    3.9421   -3.8109   34.3475 C   0  0  0  0  0  0  0  0  0  0  0  0
    5.3393   -3.9780   34.5797 O   0  0  0  0  0  0  0  0  0  0  0  0
    5.6464   -5.0392   35.4744 C   0  0  0  0  0  0  0  0  0  0  0  0
    5.8363   -2.3303   32.8493 H   0  0  0  0  0  0  0  0  0  0  0  0
    5.0785   -0.7967   32.3402 H   0  0  0  0  0  0  0  0  0  0  0  0
    6.4091   -0.7831   33.5054 H   0  0  0  0  0  0  0  0  0  0  0  0
    2.9085   -2.0869   35.0236 H   0  0  0  0  0  0  0  0  0  0  0  0
    2.2132   -1.0970   32.9601 H   0  0  0  0  0  0  0  0  0  0  0  0
    3.1956   -2.1723   32.0008 H   0  0  0  0  0  0  0  0  0  0  0  0
    0.7991   -2.9272   33.7365 H   0  0  0  0  0  0  0  0  0  0  0  0
    0.8656   -2.9387   31.9979 H   0  0  0  0  0  0  0  0  0  0  0  0
    2.3749   -5.9879   31.2939 H   0  0  0  0  0  0  0  0  0  0  0  0
    1.3590   -4.6666   30.8050 H   0  0  0  0  0  0  0  0  0  0  0  0
   -1.8872   -7.9920   33.3128 H   0  0  0  0  0  0  0  0  0  0  0  0
   -0.7846   -4.9996   34.1465 H   0  0  0  0  0  0  0  0  0  0  0  0
    1.5690   -6.0486   36.7260 H   0  0  0  0  0  0  0  0  0  0  0  0
    0.2018   -4.9196   36.8447 H   0  0  0  0  0  0  0  0  0  0  0  0
    1.0876   -8.4581   38.0059 H   0  0  0  0  0  0  0  0  0  0  0  0
    0.6974   -9.1412   40.3521 H   0  0  0  0  0  0  0  0  0  0  0  0
   -0.9151   -5.4765   41.3288 H   0  0  0  0  0  0  0  0  0  0  0  0
   -0.6376   -4.6193   39.0230 H   0  0  0  0  0  0  0  0  0  0  0  0
    1.4548   -4.6710   35.0244 H   0  0  0  0  0  0  0  0  0  0  0  0
    1.9976   -6.2287   34.3861 H   0  0  0  0  0  0  0  0  0  0  0  0
    4.0013   -4.3267   32.2334 H   0  0  0  0  0  0  0  0  0  0  0  0
    3.8220   -5.6948   33.2832 H   0  0  0  0  0  0  0  0  0  0  0  0
    3.4281   -4.1544   35.2520 H   0  0  0  0  0  0  0  0  0  0  0  0
    6.7341   -5.1165   35.5534 H   0  0  0  0  0  0  0  0  0  0  0  0
    5.2557   -5.9906   35.1026 H   0  0  0  0  0  0  0  0  0  0  0  0
    5.2412   -4.8280   36.4687 H   0  0  0  0  0  0  0  0  0  0  0  0
  1  2  1  0
  2  3  1  0
  3  4  1  0
  4  5  1  0
  5  6  1  0
  6  7  1  0
  7  8  1  0
  8  9  2  0
  9 10  1  0
 10 11  2  0
 11 12  1  0
 12 13  1  0
 13 14  1  0
 14 15  1  0
 15 16  1  0
 16 17  2  0
 17 18  1  0
 18 19  2  0
 19 20  1  0
 20 21  2  0
 13 22  1  0
  6 23  1  0
 23 24  1  0
 24 25  1  0
 25 26  1  0
 24  3  1  0
 22  6  1  0
 12  8  1  0
 21 16  1  0
  1 27  1  0
  1 28  1  0
  1 29  1  0
  3 30  1  0
  4 31  1  0
  4 32  1  0
  5 33  1  0
  5 34  1  0
  7 35  1  0
  7 36  1  0
 11 37  1  0
 13 38  1  0
 15 39  1  0
 15 40  1  0
 17 41  1  0
 18 42  1  0
 20 43  1  0
 21 44  1  0
 22 45  1  0
 22 46  1  0
 23 47  1  0
 23 48  1  0
 24 49  1  0
 26 50  1  0
 26 51  1  0
 26 52  1  0
M  END
>  <Energy>  (68) 
103.39097567789504

>  <compound_id>  (68) 
2372

>  <target_id>  (68) 
1

>  <reference_id>  (68) 
164

>  <inspiration_ids>  (68) 
[164, 132]

>  <energy_score>  (68) 
-33.298318567358294

>  <distance_score>  (68) 
1.0064987051049243

>  <path>  (68) 
/opt/xchem-fragalysis-2/maxwin/BulkDock/SCRATCH/505736/C2372-P164/C2372-P164.minimised.mol

>  <scratch_subdir>  (68) 
/opt/xchem-fragalysis-2/maxwin/BulkDock/SCRATCH/505736/C2372-P164

>  <fragmenstein_runtime>  (68) 
2.021874189376831

>  <fragmenstein_outcome>  (68) 
too moved

>  <fragmenstein_mode>  (68) 
expansion

>  <fragmenstein_error>  (68) 


$$$$
C2372-P132
     RDKit          3D

 52 55  0  0  0  0  0  0  0  0999 V2000
    5.5155   -1.3279   33.1724 C   0  0  0  0  0  0  0  0  0  0  0  0
    4.5972   -1.3636   34.2534 O   0  0  0  0  0  0  0  0  0  0  0  0
    3.5215   -2.2996   34.1491 C   0  0  0  0  0  0  0  0  0  0  0  0
    2.6076   -2.0890   32.9285 C   0  0  0  0  0  0  0  0  0  0  0  0
    1.4493   -3.1090   32.8883 C   0  0  0  0  0  0  0  0  0  0  0  0
    1.9053   -4.6053   32.9304 C   0  0  0  0  0  0  0  0  0  0  0  0
    1.5026   -5.3474   31.6173 C   0  0  0  0  0  0  0  0  0  0  0  0
    0.3377   -6.2815   31.7252 C   0  0  0  0  0  0  0  0  0  0  0  0
   -0.1703   -7.0347   30.7689 N   0  0  0  0  0  0  0  0  0  0  0  0
   -1.1530   -7.8253   31.3199 N   0  0  0  0  0  0  0  0  0  0  0  0
   -1.2164   -7.5398   32.6001 C   0  0  0  0  0  0  0  0  0  0  0  0
   -0.3344   -6.5473   32.8888 N   0  0  0  0  0  0  0  0  0  0  0  0
   -0.1105   -5.8335   34.1349 C   0  0  0  0  0  0  0  0  0  0  0  0
   -0.4319   -6.8753   35.6352 S   0  0  0  0  0  0  0  0  0  0  0  0
    0.4909   -5.9464   36.9070 C   0  0  0  0  0  0  0  0  0  0  0  0
    0.2673   -6.4374   38.3068 C   0  0  0  0  0  0  0  0  0  0  0  0
    0.6730   -7.7140   38.7066 C   0  0  0  0  0  0  0  0  0  0  0  0
    0.4708   -8.0978   40.0227 C   0  0  0  0  0  0  0  0  0  0  0  0
   -0.0769   -7.2930   40.9580 N   0  0  0  0  0  0  0  0  0  0  0  0
   -0.4518   -6.0611   40.5591 C   0  0  0  0  0  0  0  0  0  0  0  0
   -0.3047   -5.5942   39.2637 C   0  0  0  0  0  0  0  0  0  0  0  0
    1.3309   -5.3294   34.1774 C   0  0  0  0  0  0  0  0  0  0  0  0
    3.4583   -4.6384   33.1414 C   0  0  0  0  0  0  0  0  0  0  0  0
    3.9189   -3.7866   34.3473 C   0  0  0  0  0  0  0  0  0  0  0  0
    5.3150   -3.9598   34.5835 O   0  0  0  0  0  0  0  0  0  0  0  0
    5.6167   -5.0253   35.4748 C   0  0  0  0  0  0  0  0  0  0  0  0
    5.8225   -2.3241   32.8469 H   0  0  0  0  0  0  0  0  0  0  0  0
    5.0735   -0.7891   32.3294 H   0  0  0  0  0  0  0  0  0  0  0  0
    6.4028   -0.7768   33.4960 H   0  0  0  0  0  0  0  0  0  0  0  0
    2.8947   -2.0554   35.0183 H   0  0  0  0  0  0  0  0  0  0  0  0
    2.2013   -1.0703   32.9529 H   0  0  0  0  0  0  0  0  0  0  0  0
    3.1803   -2.1504   31.9956 H   0  0  0  0  0  0  0  0  0  0  0  0
    0.7818   -2.8959   33.7333 H   0  0  0  0  0  0  0  0  0  0  0  0
    0.8465   -2.9072   31.9951 H   0  0  0  0  0  0  0  0  0  0  0  0
    2.3508   -5.9438   31.2702 H   0  0  0  0  0  0  0  0  0  0  0  0
    1.3087   -4.6351   30.8067 H   0  0  0  0  0  0  0  0  0  0  0  0
   -1.8672   -8.0151   33.3199 H   0  0  0  0  0  0  0  0  0  0  0  0
   -0.8133   -4.9939   34.1374 H   0  0  0  0  0  0  0  0  0  0  0  0
    1.5669   -6.0169   36.7155 H   0  0  0  0  0  0  0  0  0  0  0  0
    0.1955   -4.8936   36.8404 H   0  0  0  0  0  0  0  0  0  0  0  0
    1.1230   -8.4155   38.0135 H   0  0  0  0  0  0  0  0  0  0  0  0
    0.7469   -9.0931   40.3643 H   0  0  0  0  0  0  0  0  0  0  0  0
   -0.8994   -5.4409   41.3308 H   0  0  0  0  0  0  0  0  0  0  0  0
   -0.6415   -4.5922   39.0190 H   0  0  0  0  0  0  0  0  0  0  0  0
    1.4220   -4.6354   35.0170 H   0  0  0  0  0  0  0  0  0  0  0  0
    1.9796   -6.1927   34.3902 H   0  0  0  0  0  0  0  0  0  0  0  0
    3.9806   -4.3070   32.2338 H   0  0  0  0  0  0  0  0  0  0  0  0
    3.7935   -5.6692   33.2910 H   0  0  0  0  0  0  0  0  0  0  0  0
    3.4010   -4.1259   35.2511 H   0  0  0  0  0  0  0  0  0  0  0  0
    6.7039   -5.1048   35.5578 H   0  0  0  0  0  0  0  0  0  0  0  0
    5.2259   -5.9745   35.0976 H   0  0  0  0  0  0  0  0  0  0  0  0
    5.2078   -4.8177   36.4684 H   0  0  0  0  0  0  0  0  0  0  0  0
  1  2  1  0
  2  3  1  0
  3  4  1  0
  4  5  1  0
  5  6  1  0
  6  7  1  0
  7  8  1  0
  8  9  2  0
  9 10  1  0
 10 11  2  0
 11 12  1  0
 12 13  1  0
 13 14  1  0
 14 15  1  0
 15 16  1  0
 16 17  2  0
 17 18  1  0
 18 19  2  0
 19 20  1  0
 20 21  2  0
 13 22  1  0
  6 23  1  0
 23 24  1  0
 24 25  1  0
 25 26  1  0
 24  3  1  0
 22  6  1  0
 12  8  1  0
 21 16  1  0
  1 27  1  0
  1 28  1  0
  1 29  1  0
  3 30  1  0
  4 31  1  0
  4 32  1  0
  5 33  1  0
  5 34  1  0
  7 35  1  0
  7 36  1  0
 11 37  1  0
 13 38  1  0
 15 39  1  0
 15 40  1  0
 17 41  1  0
 18 42  1  0
 20 43  1  0
 21 44  1  0
 22 45  1  0
 22 46  1  0
 23 47  1  0
 23 48  1  0
 24 49  1  0
 26 50  1  0
 26 51  1  0
 26 52  1  0
M  END
>  <Energy>  (69) 
104.03580344283327

>  <compound_id>  (69) 
2372

>  <target_id>  (69) 
1

>  <reference_id>  (69) 
132

>  <inspiration_ids>  (69) 
[164, 132]

>  <energy_score>  (69) 
-32.6534908024215

>  <distance_score>  (69) 
0.999330821888081

>  <path>  (69) 
/opt/xchem-fragalysis-2/maxwin/BulkDock/SCRATCH/505736/C2372-P132/C2372-P132.minimised.mol

>  <scratch_subdir>  (69) 
/opt/xchem-fragalysis-2/maxwin/BulkDock/SCRATCH/505736/C2372-P132

>  <fragmenstein_runtime>  (69) 
2.0142736434936523

>  <fragmenstein_outcome>  (69) 
acceptable

>  <fragmenstein_mode>  (69) 
expansion

>  <fragmenstein_error>  (69) 


$$$$
C2373-P164
     RDKit          3D

 47 50  0  0  0  0  0  0  0  0999 V2000
    1.0522   -1.7906   32.1578 C   0  0  0  0  0  0  0  0  0  0  0  0
    1.5877   -2.6501   33.2827 N   0  0  0  0  0  0  0  0  0  0  0  0
    2.0764   -1.2935   33.7404 C   0  0  0  0  0  0  0  0  0  0  0  0
    3.0074   -1.5189   34.9239 C   0  0  0  0  0  0  0  0  0  0  0  0
    4.2787   -0.9302   34.9493 C   0  0  0  0  0  0  0  0  0  0  0  0
    5.1522   -1.1971   36.0006 C   0  0  0  0  0  0  0  0  0  0  0  0
    4.7594   -2.0481   37.0358 C   0  0  0  0  0  0  0  0  0  0  0  0
    3.4841   -2.6055   37.0387 C   0  0  0  0  0  0  0  0  0  0  0  0
    2.6089   -2.3323   35.9928 C   0  0  0  0  0  0  0  0  0  0  0  0
    2.3520   -3.8452   32.7453 C   0  0  0  0  0  0  0  0  0  0  0  0
    3.4923   -3.9648   32.4856 O   0  0  0  0  0  0  0  0  0  0  0  0
    1.3660   -4.9334   32.4626 C   0  0  0  0  0  0  0  0  0  0  0  0
    0.9377   -4.9855   31.0646 C   0  0  0  0  0  0  0  0  0  0  0  0
    0.0213   -5.8574   30.6372 C   0  0  0  0  0  0  0  0  0  0  0  0
   -0.5526   -6.7634   31.5478 C   0  0  0  0  0  0  0  0  0  0  0  0
   -1.4648   -7.6925   31.3861 N   0  0  0  0  0  0  0  0  0  0  0  0
   -1.6800   -8.2658   32.6065 N   0  0  0  0  0  0  0  0  0  0  0  0
   -0.8744   -7.6946   33.4730 C   0  0  0  0  0  0  0  0  0  0  0  0
   -0.1194   -6.7245   32.8679 N   0  0  0  0  0  0  0  0  0  0  0  0
    0.8750   -5.8389   33.3485 C   0  0  0  0  0  0  0  0  0  0  0  0
    1.5583   -6.0857   34.9434 S   0  0  0  0  0  0  0  0  0  0  0  0
    0.2096   -5.6111   36.0668 C   0  0  0  0  0  0  0  0  0  0  0  0
    0.3687   -6.0757   37.5006 C   0  0  0  0  0  0  0  0  0  0  0  0
    0.6592   -7.4031   37.8404 C   0  0  0  0  0  0  0  0  0  0  0  0
    0.6666   -7.7788   39.1796 C   0  0  0  0  0  0  0  0  0  0  0  0
    0.3983   -6.9318   40.1943 N   0  0  0  0  0  0  0  0  0  0  0  0
    0.1162   -5.6578   39.8580 C   0  0  0  0  0  0  0  0  0  0  0  0
    0.0891   -5.1911   38.5501 C   0  0  0  0  0  0  0  0  0  0  0  0
    1.8209   -1.5145   31.4190 H   0  0  0  0  0  0  0  0  0  0  0  0
    0.3698   -0.9705   32.4341 H   0  0  0  0  0  0  0  0  0  0  0  0
    0.3832   -2.4484   31.5889 H   0  0  0  0  0  0  0  0  0  0  0  0
    1.2627   -0.6684   34.1424 H   0  0  0  0  0  0  0  0  0  0  0  0
    2.7057   -0.7577   33.0090 H   0  0  0  0  0  0  0  0  0  0  0  0
    4.6143   -0.2887   34.1383 H   0  0  0  0  0  0  0  0  0  0  0  0
    6.1463   -0.7580   36.0083 H   0  0  0  0  0  0  0  0  0  0  0  0
    5.4481   -2.2657   37.8482 H   0  0  0  0  0  0  0  0  0  0  0  0
    3.1781   -3.2592   37.8513 H   0  0  0  0  0  0  0  0  0  0  0  0
    1.6180   -2.7737   36.0002 H   0  0  0  0  0  0  0  0  0  0  0  0
    1.3948   -4.2929   30.3611 H   0  0  0  0  0  0  0  0  0  0  0  0
   -0.3016   -5.8621   29.6102 H   0  0  0  0  0  0  0  0  0  0  0  0
   -0.8052   -7.9575   34.5178 H   0  0  0  0  0  0  0  0  0  0  0  0
   -0.7490   -5.9955   35.7053 H   0  0  0  0  0  0  0  0  0  0  0  0
    0.1330   -4.5198   36.0343 H   0  0  0  0  0  0  0  0  0  0  0  0
    0.8548   -8.1543   37.0859 H   0  0  0  0  0  0  0  0  0  0  0  0
    0.8771   -8.8050   39.4736 H   0  0  0  0  0  0  0  0  0  0  0  0
   -0.1068   -4.9981   40.6919 H   0  0  0  0  0  0  0  0  0  0  0  0
   -0.1720   -4.1538   38.3643 H   0  0  0  0  0  0  0  0  0  0  0  0
  1  2  1  0
  2  3  1  0
  3  4  1  0
  4  5  2  0
  5  6  1  0
  6  7  2  0
  7  8  1  0
  8  9  2  0
  2 10  1  0
 10 11  2  0
 10 12  1  0
 12 13  1  0
 13 14  2  0
 14 15  1  0
 15 16  2  0
 16 17  1  0
 17 18  2  0
 18 19  1  0
 19 20  1  0
 20 21  1  0
 21 22  1  0
 22 23  1  0
 23 24  2  0
 24 25  1  0
 25 26  2  0
 26 27  1  0
 27 28  2  0
  9  4  1  0
 20 12  2  0
 28 23  1  0
 19 15  1  0
  1 29  1  0
  1 30  1  0
  1 31  1  0
  3 32  1  0
  3 33  1  0
  5 34  1  0
  6 35  1  0
  7 36  1  0
  8 37  1  0
  9 38  1  0
 13 39  1  0
 14 40  1  0
 18 41  1  0
 22 42  1  0
 22 43  1  0
 24 44  1  0
 25 45  1  0
 27 46  1  0
 28 47  1  0
M  END
>  <Energy>  (70) 
152.38278924229647

>  <compound_id>  (70) 
2373

>  <target_id>  (70) 
1

>  <reference_id>  (70) 
164

>  <inspiration_ids>  (70) 
[164, 133]

>  <energy_score>  (70) 
41.07078646671664

>  <distance_score>  (70) 
0.9493530351433704

>  <path>  (70) 
/opt/xchem-fragalysis-2/maxwin/BulkDock/SCRATCH/505736/C2373-P164/C2373-P164.minimised.mol

>  <scratch_subdir>  (70) 
/opt/xchem-fragalysis-2/maxwin/BulkDock/SCRATCH/505736/C2373-P164

>  <fragmenstein_runtime>  (70) 
3.023932456970215

>  <fragmenstein_outcome>  (70) 
too contorted

>  <fragmenstein_mode>  (70) 
expansion

>  <fragmenstein_error>  (70) 


$$$$
C2373-P133
     RDKit          3D

 47 50  0  0  0  0  0  0  0  0999 V2000
    0.8870   -1.7484   32.2429 C   0  0  0  0  0  0  0  0  0  0  0  0
    1.4774   -2.6378   33.3144 N   0  0  0  0  0  0  0  0  0  0  0  0
    1.9397   -1.2877   33.8171 C   0  0  0  0  0  0  0  0  0  0  0  0
    2.9247   -1.5339   34.9525 C   0  0  0  0  0  0  0  0  0  0  0  0
    4.1844   -0.9190   34.9477 C   0  0  0  0  0  0  0  0  0  0  0  0
    5.1043   -1.2001   35.9550 C   0  0  0  0  0  0  0  0  0  0  0  0
    4.7700   -2.0917   36.9766 C   0  0  0  0  0  0  0  0  0  0  0  0
    3.5089   -2.6795   37.0082 C   0  0  0  0  0  0  0  0  0  0  0  0
    2.5877   -2.3936   36.0059 C   0  0  0  0  0  0  0  0  0  0  0  0
    2.2593   -3.7847   32.7064 C   0  0  0  0  0  0  0  0  0  0  0  0
    3.3949   -3.8593   32.4116 O   0  0  0  0  0  0  0  0  0  0  0  0
    1.2980   -4.8896   32.4027 C   0  0  0  0  0  0  0  0  0  0  0  0
    0.8915   -4.9285   30.9962 C   0  0  0  0  0  0  0  0  0  0  0  0
    0.0154   -5.8247   30.5356 C   0  0  0  0  0  0  0  0  0  0  0  0
   -0.5457   -6.7604   31.4244 C   0  0  0  0  0  0  0  0  0  0  0  0
   -1.4160   -7.7204   31.2242 N   0  0  0  0  0  0  0  0  0  0  0  0
   -1.6426   -8.3157   32.4305 N   0  0  0  0  0  0  0  0  0  0  0  0
   -0.8911   -7.7218   33.3312 C   0  0  0  0  0  0  0  0  0  0  0  0
   -0.1479   -6.7238   32.7578 N   0  0  0  0  0  0  0  0  0  0  0  0
    0.8137   -5.8178   33.2694 C   0  0  0  0  0  0  0  0  0  0  0  0
    1.4897   -6.0717   34.8674 S   0  0  0  0  0  0  0  0  0  0  0  0
    0.1271   -5.6372   35.9934 C   0  0  0  0  0  0  0  0  0  0  0  0
    0.3424   -6.0677   37.4301 C   0  0  0  0  0  0  0  0  0  0  0  0
    0.5281   -7.4103   37.7775 C   0  0  0  0  0  0  0  0  0  0  0  0
    0.6177   -7.7624   39.1189 C   0  0  0  0  0  0  0  0  0  0  0  0
    0.5271   -6.8793   40.1345 N   0  0  0  0  0  0  0  0  0  0  0  0
    0.3367   -5.5894   39.7880 C   0  0  0  0  0  0  0  0  0  0  0  0
    0.2431   -5.1420   38.4749 C   0  0  0  0  0  0  0  0  0  0  0  0
    1.6264   -1.4136   31.4983 H   0  0  0  0  0  0  0  0  0  0  0  0
    0.1845   -0.9663   32.5732 H   0  0  0  0  0  0  0  0  0  0  0  0
    0.2286   -2.4054   31.6595 H   0  0  0  0  0  0  0  0  0  0  0  0
    2.5223   -0.6943   33.0915 H   0  0  0  0  0  0  0  0  0  0  0  0
    1.1202   -0.7114   34.2761 H   0  0  0  0  0  0  0  0  0  0  0  0
    4.4736   -0.2439   34.1462 H   0  0  0  0  0  0  0  0  0  0  0  0
    6.0883   -0.7392   35.9387 H   0  0  0  0  0  0  0  0  0  0  0  0
    5.4941   -2.3198   37.7545 H   0  0  0  0  0  0  0  0  0  0  0  0
    3.2493   -3.3684   37.8077 H   0  0  0  0  0  0  0  0  0  0  0  0
    1.6092   -2.8616   36.0344 H   0  0  0  0  0  0  0  0  0  0  0  0
    1.3352   -4.2060   30.3143 H   0  0  0  0  0  0  0  0  0  0  0  0
   -0.2890   -5.8279   29.5006 H   0  0  0  0  0  0  0  0  0  0  0  0
   -0.8526   -7.9915   34.3769 H   0  0  0  0  0  0  0  0  0  0  0  0
   -0.8138   -6.0797   35.6521 H   0  0  0  0  0  0  0  0  0  0  0  0
   -0.0094   -4.5520   35.9418 H   0  0  0  0  0  0  0  0  0  0  0  0
    0.5570   -8.1898   37.0252 H   0  0  0  0  0  0  0  0  0  0  0  0
    0.7449   -8.8003   39.4124 H   0  0  0  0  0  0  0  0  0  0  0  0
    0.2504   -4.8958   40.6198 H   0  0  0  0  0  0  0  0  0  0  0  0
    0.0700   -4.0878   38.2835 H   0  0  0  0  0  0  0  0  0  0  0  0
  1  2  1  0
  2  3  1  0
  3  4  1  0
  4  5  2  0
  5  6  1  0
  6  7  2  0
  7  8  1  0
  8  9  2  0
  2 10  1  0
 10 11  2  0
 10 12  1  0
 12 13  1  0
 13 14  2  0
 14 15  1  0
 15 16  2  0
 16 17  1  0
 17 18  2  0
 18 19  1  0
 19 20  1  0
 20 21  1  0
 21 22  1  0
 22 23  1  0
 23 24  2  0
 24 25  1  0
 25 26  2  0
 26 27  1  0
 27 28  2  0
  9  4  1  0
 20 12  2  0
 28 23  1  0
 19 15  1  0
  1 29  1  0
  1 30  1  0
  1 31  1  0
  3 32  1  0
  3 33  1  0
  5 34  1  0
  6 35  1  0
  7 36  1  0
  8 37  1  0
  9 38  1  0
 13 39  1  0
 14 40  1  0
 18 41  1  0
 22 42  1  0
 22 43  1  0
 24 44  1  0
 25 45  1  0
 27 46  1  0
 28 47  1  0
M  END
>  <Energy>  (71) 
151.65098830240149

>  <compound_id>  (71) 
2373

>  <target_id>  (71) 
1

>  <reference_id>  (71) 
133

>  <inspiration_ids>  (71) 
[164, 133]

>  <energy_score>  (71) 
40.338985526821546

>  <distance_score>  (71) 
0.9497514051345908

>  <path>  (71) 
/opt/xchem-fragalysis-2/maxwin/BulkDock/SCRATCH/505736/C2373-P133/C2373-P133.minimised.mol

>  <scratch_subdir>  (71) 
/opt/xchem-fragalysis-2/maxwin/BulkDock/SCRATCH/505736/C2373-P133

>  <fragmenstein_runtime>  (71) 
3.3383727073669434

>  <fragmenstein_outcome>  (71) 
too contorted

>  <fragmenstein_mode>  (71) 
expansion

>  <fragmenstein_error>  (71) 


$$$$
C2373-P164
     RDKit          3D

 47 50  0  0  0  0  0  0  0  0999 V2000
    2.0853   -2.0231   32.7321 C   0  0  0  0  0  0  0  0  0  0  0  0
    0.6058   -2.3613   32.8140 N   0  0  0  0  0  0  0  0  0  0  0  0
    0.4923   -0.8646   32.9191 C   0  0  0  0  0  0  0  0  0  0  0  0
    0.1982   -0.2429   31.5540 C   0  0  0  0  0  0  0  0  0  0  0  0
   -0.6498   -0.8959   30.6377 C   0  0  0  0  0  0  0  0  0  0  0  0
   -0.8745   -0.3669   29.3669 C   0  0  0  0  0  0  0  0  0  0  0  0
   -0.2781    0.8366   29.0051 C   0  0  0  0  0  0  0  0  0  0  0  0
    0.5449    1.5067   29.9105 C   0  0  0  0  0  0  0  0  0  0  0  0
    0.7819    0.9731   31.1806 C   0  0  0  0  0  0  0  0  0  0  0  0
    0.3895   -3.3795   33.7810 C   0  0  0  0  0  0  0  0  0  0  0  0
    0.1489   -3.3018   34.9525 O   0  0  0  0  0  0  0  0  0  0  0  0
    0.3960   -4.7488   33.0497 C   0  0  0  0  0  0  0  0  0  0  0  0
    0.7943   -4.7930   31.6197 C   0  0  0  0  0  0  0  0  0  0  0  0
    0.4891   -5.8022   30.7940 C   0  0  0  0  0  0  0  0  0  0  0  0
   -0.2705   -6.8751   31.2861 C   0  0  0  0  0  0  0  0  0  0  0  0
   -0.8400   -7.8919   30.6817 N   0  0  0  0  0  0  0  0  0  0  0  0
   -1.5199   -8.6047   31.6286 N   0  0  0  0  0  0  0  0  0  0  0  0
   -1.3392   -8.0071   32.7844 C   0  0  0  0  0  0  0  0  0  0  0  0
   -0.5556   -6.8891   32.6423 N   0  0  0  0  0  0  0  0  0  0  0  0
   -0.1860   -5.8740   33.5625 C   0  0  0  0  0  0  0  0  0  0  0  0
   -0.7184   -6.1222   35.2087 S   0  0  0  0  0  0  0  0  0  0  0  0
    0.8334   -6.1321   36.1530 C   0  0  0  0  0  0  0  0  0  0  0  0
    0.5608   -6.3792   37.6160 C   0  0  0  0  0  0  0  0  0  0  0  0
    0.8323   -7.6166   38.2069 C   0  0  0  0  0  0  0  0  0  0  0  0
    0.5177   -7.8073   39.5447 C   0  0  0  0  0  0  0  0  0  0  0  0
   -0.0355   -6.8551   40.3246 N   0  0  0  0  0  0  0  0  0  0  0  0
   -0.2931   -5.6654   39.7402 C   0  0  0  0  0  0  0  0  0  0  0  0
   -0.0131   -5.3818   38.4123 C   0  0  0  0  0  0  0  0  0  0  0  0
    2.6196   -2.9756   32.6069 H   0  0  0  0  0  0  0  0  0  0  0  0
    2.3879   -1.4388   31.8525 H   0  0  0  0  0  0  0  0  0  0  0  0
    2.5073   -1.6632   33.6850 H   0  0  0  0  0  0  0  0  0  0  0  0
    1.1699   -0.2836   33.5688 H   0  0  0  0  0  0  0  0  0  0  0  0
   -0.4562   -0.7423   33.4683 H   0  0  0  0  0  0  0  0  0  0  0  0
   -1.1273   -1.8372   30.9014 H   0  0  0  0  0  0  0  0  0  0  0  0
   -1.5106   -0.8928   28.6568 H   0  0  0  0  0  0  0  0  0  0  0  0
   -0.4612    1.2558   28.0187 H   0  0  0  0  0  0  0  0  0  0  0  0
    0.9992    2.4529   29.6241 H   0  0  0  0  0  0  0  0  0  0  0  0
    1.4337    1.5115   31.8644 H   0  0  0  0  0  0  0  0  0  0  0  0
    1.3307   -3.9603   31.1796 H   0  0  0  0  0  0  0  0  0  0  0  0
    0.7737   -5.7814   29.7495 H   0  0  0  0  0  0  0  0  0  0  0  0
   -1.7696   -8.3166   33.7242 H   0  0  0  0  0  0  0  0  0  0  0  0
    1.3765   -5.1890   36.0420 H   0  0  0  0  0  0  0  0  0  0  0  0
    1.4821   -6.9200   35.7530 H   0  0  0  0  0  0  0  0  0  0  0  0
    1.2628   -8.4364   37.6465 H   0  0  0  0  0  0  0  0  0  0  0  0
    0.6956   -8.7649   40.0294 H   0  0  0  0  0  0  0  0  0  0  0  0
   -0.7578   -4.9237   40.3837 H   0  0  0  0  0  0  0  0  0  0  0  0
   -0.2626   -4.4072   38.0018 H   0  0  0  0  0  0  0  0  0  0  0  0
  1  2  1  0
  2  3  1  0
  3  4  1  0
  4  5  2  0
  5  6  1  0
  6  7  2  0
  7  8  1  0
  8  9  2  0
  2 10  1  0
 10 11  2  0
 10 12  1  0
 12 13  1  0
 13 14  2  0
 14 15  1  0
 15 16  2  0
 16 17  1  0
 17 18  2  0
 18 19  1  0
 19 20  1  0
 20 21  1  0
 21 22  1  0
 22 23  1  0
 23 24  2  0
 24 25  1  0
 25 26  2  0
 26 27  1  0
 27 28  2  0
  9  4  1  0
 20 12  2  0
 28 23  1  0
 19 15  1  0
  1 29  1  0
  1 30  1  0
  1 31  1  0
  3 32  1  0
  3 33  1  0
  5 34  1  0
  6 35  1  0
  7 36  1  0
  8 37  1  0
  9 38  1  0
 13 39  1  0
 14 40  1  0
 18 41  1  0
 22 42  1  0
 22 43  1  0
 24 44  1  0
 25 45  1  0
 27 46  1  0
 28 47  1  0
M  END
>  <Energy>  (72) 
142.78417097641855

>  <compound_id>  (72) 
2373

>  <target_id>  (72) 
1

>  <reference_id>  (72) 
164

>  <inspiration_ids>  (72) 
[164, 134]

>  <energy_score>  (72) 
62.032700974865804

>  <distance_score>  (72) 
1.1959335864776968

>  <path>  (72) 
/opt/xchem-fragalysis-2/maxwin/BulkDock/SCRATCH/505736/C2373-P164/C2373-P164.minimised.mol

>  <scratch_subdir>  (72) 
/opt/xchem-fragalysis-2/maxwin/BulkDock/SCRATCH/505736/C2373-P164

>  <fragmenstein_runtime>  (72) 
3.934873104095459

>  <fragmenstein_outcome>  (72) 
too moved

>  <fragmenstein_mode>  (72) 
expansion

>  <fragmenstein_error>  (72) 


$$$$
C2373-P134
     RDKit          3D

 47 50  0  0  0  0  0  0  0  0999 V2000
    2.0253   -1.8569   32.6842 C   0  0  0  0  0  0  0  0  0  0  0  0
    0.5438   -2.1810   32.7694 N   0  0  0  0  0  0  0  0  0  0  0  0
    0.4449   -0.6848   32.8824 C   0  0  0  0  0  0  0  0  0  0  0  0
    0.1371   -0.0681   31.5177 C   0  0  0  0  0  0  0  0  0  0  0  0
   -0.7490   -0.7090   30.6285 C   0  0  0  0  0  0  0  0  0  0  0  0
   -0.9827   -0.1935   29.3540 C   0  0  0  0  0  0  0  0  0  0  0  0
   -0.3548    0.9840   28.9608 C   0  0  0  0  0  0  0  0  0  0  0  0
    0.5045    1.6437   29.8402 C   0  0  0  0  0  0  0  0  0  0  0  0
    0.7498    1.1235   31.1142 C   0  0  0  0  0  0  0  0  0  0  0  0
    0.3211   -3.2020   33.7318 C   0  0  0  0  0  0  0  0  0  0  0  0
    0.0853   -3.1281   34.9044 O   0  0  0  0  0  0  0  0  0  0  0  0
    0.3140   -4.5652   32.9866 C   0  0  0  0  0  0  0  0  0  0  0  0
    0.6682   -4.5838   31.5434 C   0  0  0  0  0  0  0  0  0  0  0  0
    0.3676   -5.5921   30.7161 C   0  0  0  0  0  0  0  0  0  0  0  0
   -0.3338   -6.6971   31.2208 C   0  0  0  0  0  0  0  0  0  0  0  0
   -0.8634   -7.7381   30.6215 N   0  0  0  0  0  0  0  0  0  0  0  0
   -1.4900   -8.4836   31.5782 N   0  0  0  0  0  0  0  0  0  0  0  0
   -1.3183   -7.8811   32.7344 C   0  0  0  0  0  0  0  0  0  0  0  0
   -0.5872   -6.7297   32.5842 N   0  0  0  0  0  0  0  0  0  0  0  0
   -0.2300   -5.7076   33.5028 C   0  0  0  0  0  0  0  0  0  0  0  0
   -0.7213   -5.9712   35.1598 S   0  0  0  0  0  0  0  0  0  0  0  0
    0.8476   -5.9648   36.0672 C   0  0  0  0  0  0  0  0  0  0  0  0
    0.6137   -6.1568   37.5447 C   0  0  0  0  0  0  0  0  0  0  0  0
    0.8054   -7.4013   38.1485 C   0  0  0  0  0  0  0  0  0  0  0  0
    0.5429   -7.5421   39.5025 C   0  0  0  0  0  0  0  0  0  0  0  0
    0.1095   -6.5370   40.2905 N   0  0  0  0  0  0  0  0  0  0  0  0
   -0.0894   -5.3441   39.6880 C   0  0  0  0  0  0  0  0  0  0  0  0
    0.1496   -5.1059   38.3420 C   0  0  0  0  0  0  0  0  0  0  0  0
    2.5462   -2.8146   32.5410 H   0  0  0  0  0  0  0  0  0  0  0  0
    2.3319   -1.2647   31.8112 H   0  0  0  0  0  0  0  0  0  0  0  0
    2.4549   -1.5149   33.6403 H   0  0  0  0  0  0  0  0  0  0  0  0
    1.1388   -0.1075   33.5181 H   0  0  0  0  0  0  0  0  0  0  0  0
   -0.4936   -0.5537   33.4461 H   0  0  0  0  0  0  0  0  0  0  0  0
   -1.2494   -1.6310   30.9171 H   0  0  0  0  0  0  0  0  0  0  0  0
   -1.6510   -0.7082   28.6660 H   0  0  0  0  0  0  0  0  0  0  0  0
   -0.5470    1.3951   27.9726 H   0  0  0  0  0  0  0  0  0  0  0  0
    0.9777    2.5732   29.5312 H   0  0  0  0  0  0  0  0  0  0  0  0
    1.4292    1.6535   31.7773 H   0  0  0  0  0  0  0  0  0  0  0  0
    1.1596   -3.7286   31.0933 H   0  0  0  0  0  0  0  0  0  0  0  0
    0.6129   -5.5490   29.6622 H   0  0  0  0  0  0  0  0  0  0  0  0
   -1.7153   -8.2134   33.6821 H   0  0  0  0  0  0  0  0  0  0  0  0
    1.3976   -5.0321   35.9085 H   0  0  0  0  0  0  0  0  0  0  0  0
    1.4816   -6.7712   35.6800 H   0  0  0  0  0  0  0  0  0  0  0  0
    1.1222   -8.2649   37.5792 H   0  0  0  0  0  0  0  0  0  0  0  0
    0.6634   -8.5034   39.9938 H   0  0  0  0  0  0  0  0  0  0  0  0
   -0.4674   -4.5567   40.3340 H   0  0  0  0  0  0  0  0  0  0  0  0
   -0.0476   -4.1248   37.9192 H   0  0  0  0  0  0  0  0  0  0  0  0
  1  2  1  0
  2  3  1  0
  3  4  1  0
  4  5  2  0
  5  6  1  0
  6  7  2  0
  7  8  1  0
  8  9  2  0
  2 10  1  0
 10 11  2  0
 10 12  1  0
 12 13  1  0
 13 14  2  0
 14 15  1  0
 15 16  2  0
 16 17  1  0
 17 18  2  0
 18 19  1  0
 19 20  1  0
 20 21  1  0
 21 22  1  0
 22 23  1  0
 23 24  2  0
 24 25  1  0
 25 26  2  0
 26 27  1  0
 27 28  2  0
  9  4  1  0
 20 12  2  0
 28 23  1  0
 19 15  1  0
  1 29  1  0
  1 30  1  0
  1 31  1  0
  3 32  1  0
  3 33  1  0
  5 34  1  0
  6 35  1  0
  7 36  1  0
  8 37  1  0
  9 38  1  0
 13 39  1  0
 14 40  1  0
 18 41  1  0
 22 42  1  0
 22 43  1  0
 24 44  1  0
 25 45  1  0
 27 46  1  0
 28 47  1  0
M  END
>  <Energy>  (73) 
142.05843332823753

>  <compound_id>  (73) 
2373

>  <target_id>  (73) 
1

>  <reference_id>  (73) 
134

>  <inspiration_ids>  (73) 
[164, 134]

>  <energy_score>  (73) 
61.30696332668646

>  <distance_score>  (73) 
1.2561657204558672

>  <path>  (73) 
/opt/xchem-fragalysis-2/maxwin/BulkDock/SCRATCH/505736/C2373-P134/C2373-P134.minimised.mol

>  <scratch_subdir>  (73) 
/opt/xchem-fragalysis-2/maxwin/BulkDock/SCRATCH/505736/C2373-P134

>  <fragmenstein_runtime>  (73) 
4.128849267959595

>  <fragmenstein_outcome>  (73) 
too moved

>  <fragmenstein_mode>  (73) 
expansion

>  <fragmenstein_error>  (73) 


$$$$
C2374-P164
     RDKit          3D

 51 54  0  0  0  0  0  0  0  0999 V2000
    0.7101    2.4151   29.1530 C   0  0  0  0  0  0  0  0  0  0  0  0
    0.3472    1.0411   29.3493 N   0  0  0  0  0  0  0  0  0  0  0  0
   -0.1378    0.2991   30.6236 C   0  0  0  0  0  0  0  0  0  0  0  0
   -0.3894    0.7087   31.6878 O   0  0  0  0  0  0  0  0  0  0  0  0
   -0.2550   -1.1883   30.2420 C   0  0  0  0  0  0  0  0  0  0  0  0
    1.1322   -1.8500   30.1633 C   0  0  0  0  0  0  0  0  0  0  0  0
    1.4413   -2.7190   31.3905 C   0  0  0  0  0  0  0  0  0  0  0  0
    0.4323   -3.9009   31.6212 C   0  0  0  0  0  0  0  0  0  0  0  0
   -0.9679   -3.4328   31.1046 C   0  0  0  0  0  0  0  0  0  0  0  0
   -1.1761   -1.9296   31.2153 C   0  0  0  0  0  0  0  0  0  0  0  0
    0.8585   -5.1588   30.8027 C   0  0  0  0  0  0  0  0  0  0  0  0
    0.0099   -6.3265   31.1692 C   0  0  0  0  0  0  0  0  0  0  0  0
   -0.5808   -7.2240   30.4137 N   0  0  0  0  0  0  0  0  0  0  0  0
   -1.3080   -8.0529   31.2408 N   0  0  0  0  0  0  0  0  0  0  0  0
   -1.1118   -7.6569   32.4799 C   0  0  0  0  0  0  0  0  0  0  0  0
   -0.2946   -6.5754   32.4782 N   0  0  0  0  0  0  0  0  0  0  0  0
    0.3115   -5.7999   33.5510 C   0  0  0  0  0  0  0  0  0  0  0  0
   -0.4353   -6.1573   35.1943 S   0  0  0  0  0  0  0  0  0  0  0  0
    0.9651   -5.8140   36.3051 C   0  0  0  0  0  0  0  0  0  0  0  0
    0.6437   -6.2316   37.7198 C   0  0  0  0  0  0  0  0  0  0  0  0
    0.9170   -7.5276   38.1739 C   0  0  0  0  0  0  0  0  0  0  0  0
    0.5736   -7.8743   39.4739 C   0  0  0  0  0  0  0  0  0  0  0  0
   -0.0131   -7.0240   40.3420 N   0  0  0  0  0  0  0  0  0  0  0  0
   -0.2818   -5.7824   39.8874 C   0  0  0  0  0  0  0  0  0  0  0  0
    0.0213   -5.3459   38.6054 C   0  0  0  0  0  0  0  0  0  0  0  0
    0.3705   -4.2791   33.1806 C   0  0  0  0  0  0  0  0  0  0  0  0
    1.7065    2.4515   28.7075 H   0  0  0  0  0  0  0  0  0  0  0  0
    0.7051    2.9360   30.1127 H   0  0  0  0  0  0  0  0  0  0  0  0
   -0.0145    2.8707   28.4747 H   0  0  0  0  0  0  0  0  0  0  0  0
    0.3900    0.3891   28.5727 H   0  0  0  0  0  0  0  0  0  0  0  0
   -0.7201   -1.2377   29.2476 H   0  0  0  0  0  0  0  0  0  0  0  0
    1.1739   -2.4833   29.2680 H   0  0  0  0  0  0  0  0  0  0  0  0
    1.9254   -1.1024   30.0476 H   0  0  0  0  0  0  0  0  0  0  0  0
    1.4452   -2.0634   32.2716 H   0  0  0  0  0  0  0  0  0  0  0  0
    2.4602   -3.1164   31.3079 H   0  0  0  0  0  0  0  0  0  0  0  0
   -1.1070   -3.7182   30.0543 H   0  0  0  0  0  0  0  0  0  0  0  0
   -1.7493   -3.9387   31.6724 H   0  0  0  0  0  0  0  0  0  0  0  0
   -1.0105   -1.6166   32.2536 H   0  0  0  0  0  0  0  0  0  0  0  0
   -2.2174   -1.6775   30.9919 H   0  0  0  0  0  0  0  0  0  0  0  0
    0.7929   -4.9664   29.7263 H   0  0  0  0  0  0  0  0  0  0  0  0
    1.9053   -5.4089   31.0170 H   0  0  0  0  0  0  0  0  0  0  0  0
   -1.5307   -8.1221   33.3618 H   0  0  0  0  0  0  0  0  0  0  0  0
    1.3416   -6.1790   33.5896 H   0  0  0  0  0  0  0  0  0  0  0  0
    1.2021   -4.7451   36.2730 H   0  0  0  0  0  0  0  0  0  0  0  0
    1.8504   -6.3577   35.9573 H   0  0  0  0  0  0  0  0  0  0  0  0
    1.3750   -8.2719   37.5338 H   0  0  0  0  0  0  0  0  0  0  0  0
    0.7564   -8.8774   39.8538 H   0  0  0  0  0  0  0  0  0  0  0  0
   -0.7771   -5.1269   40.5985 H   0  0  0  0  0  0  0  0  0  0  0  0
   -0.2434   -4.3367   38.3069 H   0  0  0  0  0  0  0  0  0  0  0  0
   -0.4894   -3.7583   33.6222 H   0  0  0  0  0  0  0  0  0  0  0  0
    1.2538   -3.8642   33.6843 H   0  0  0  0  0  0  0  0  0  0  0  0
  1  2  1  0
  2  3  1  0
  3  4  2  0
  3  5  1  0
  5  6  1  0
  6  7  1  0
  7  8  1  0
  8  9  1  0
  9 10  1  0
  8 11  1  0
 11 12  1  0
 12 13  2  0
 13 14  1  0
 14 15  2  0
 15 16  1  0
 16 17  1  0
 17 18  1  0
 18 19  1  0
 19 20  1  0
 20 21  2  0
 21 22  1  0
 22 23  2  0
 23 24  1  0
 24 25  2  0
 17 26  1  0
 10  5  1  0
 16 12  1  0
 25 20  1  0
 26  8  1  0
  1 27  1  0
  1 28  1  0
  1 29  1  0
  2 30  1  0
  5 31  1  0
  6 32  1  0
  6 33  1  0
  7 34  1  0
  7 35  1  0
  9 36  1  0
  9 37  1  0
 10 38  1  0
 10 39  1  0
 11 40  1  0
 11 41  1  0
 15 42  1  0
 17 43  1  0
 19 44  1  0
 19 45  1  0
 21 46  1  0
 22 47  1  0
 24 48  1  0
 25 49  1  0
 26 50  1  0
 26 51  1  0
M  END
>  <Energy>  (74) 
50.567444624451745

>  <compound_id>  (74) 
2374

>  <target_id>  (74) 
1

>  <reference_id>  (74) 
164

>  <inspiration_ids>  (74) 
[164, 135]

>  <energy_score>  (74) 
-23.281715197117222

>  <distance_score>  (74) 
2.5398542094114998

>  <path>  (74) 
/opt/xchem-fragalysis-2/maxwin/BulkDock/SCRATCH/505736/C2374-P164/C2374-P164.minimised.mol

>  <scratch_subdir>  (74) 
/opt/xchem-fragalysis-2/maxwin/BulkDock/SCRATCH/505736/C2374-P164

>  <fragmenstein_runtime>  (74) 
3.994635820388794

>  <fragmenstein_outcome>  (74) 
too moved

>  <fragmenstein_mode>  (74) 
expansion

>  <fragmenstein_error>  (74) 


$$$$
C2374-P135
     RDKit          3D

 51 54  0  0  0  0  0  0  0  0999 V2000
   -1.0931    1.0225   28.0903 C   0  0  0  0  0  0  0  0  0  0  0  0
   -0.7820    0.0783   29.1260 N   0  0  0  0  0  0  0  0  0  0  0  0
   -0.3415    0.3041   30.5938 C   0  0  0  0  0  0  0  0  0  0  0  0
   -0.2381    1.2909   31.2094 O   0  0  0  0  0  0  0  0  0  0  0  0
   -0.0185   -1.0519   31.2302 C   0  0  0  0  0  0  0  0  0  0  0  0
    1.2191   -1.6849   30.6055 C   0  0  0  0  0  0  0  0  0  0  0  0
    1.5984   -2.9561   31.3663 C   0  0  0  0  0  0  0  0  0  0  0  0
    0.4414   -4.0081   31.5386 C   0  0  0  0  0  0  0  0  0  0  0  0
   -0.8546   -3.4333   30.8695 C   0  0  0  0  0  0  0  0  0  0  0  0
   -1.2127   -2.0046   31.2702 C   0  0  0  0  0  0  0  0  0  0  0  0
    0.8348   -5.3090   30.7645 C   0  0  0  0  0  0  0  0  0  0  0  0
   -0.0496   -6.4406   31.1369 C   0  0  0  0  0  0  0  0  0  0  0  0
   -0.6644   -7.3289   30.3911 N   0  0  0  0  0  0  0  0  0  0  0  0
   -1.3836   -8.1475   31.2336 N   0  0  0  0  0  0  0  0  0  0  0  0
   -1.1743   -7.7418   32.4682 C   0  0  0  0  0  0  0  0  0  0  0  0
   -0.3405   -6.6754   32.4508 N   0  0  0  0  0  0  0  0  0  0  0  0
    0.2560   -5.8605   33.5028 C   0  0  0  0  0  0  0  0  0  0  0  0
   -0.4418   -6.2353   35.1647 S   0  0  0  0  0  0  0  0  0  0  0  0
    0.9597   -5.8288   36.2532 C   0  0  0  0  0  0  0  0  0  0  0  0
    0.6645   -6.2310   37.6787 C   0  0  0  0  0  0  0  0  0  0  0  0
    0.9805   -7.5101   38.1525 C   0  0  0  0  0  0  0  0  0  0  0  0
    0.6551   -7.8463   39.4600 C   0  0  0  0  0  0  0  0  0  0  0  0
    0.0469   -7.0010   40.3182 N   0  0  0  0  0  0  0  0  0  0  0  0
   -0.2603   -5.7749   39.8461 C   0  0  0  0  0  0  0  0  0  0  0  0
    0.0219   -5.3502   38.5551 C   0  0  0  0  0  0  0  0  0  0  0  0
    0.1808   -4.3523   33.0930 C   0  0  0  0  0  0  0  0  0  0  0  0
   -0.1972    1.1732   27.4841 H   0  0  0  0  0  0  0  0  0  0  0  0
   -1.3941    1.9709   28.5385 H   0  0  0  0  0  0  0  0  0  0  0  0
   -1.8942    0.6156   27.4704 H   0  0  0  0  0  0  0  0  0  0  0  0
   -0.6792   -0.9014   28.8886 H   0  0  0  0  0  0  0  0  0  0  0  0
    0.2352   -0.8217   32.2766 H   0  0  0  0  0  0  0  0  0  0  0  0
    1.0655   -1.9252   29.5470 H   0  0  0  0  0  0  0  0  0  0  0  0
    2.0586   -0.9792   30.6357 H   0  0  0  0  0  0  0  0  0  0  0  0
    1.9815   -2.6567   32.3493 H   0  0  0  0  0  0  0  0  0  0  0  0
    2.4562   -3.4113   30.8556 H   0  0  0  0  0  0  0  0  0  0  0  0
   -0.7557   -3.4680   29.7762 H   0  0  0  0  0  0  0  0  0  0  0  0
   -1.7027   -4.0751   31.1173 H   0  0  0  0  0  0  0  0  0  0  0  0
   -1.6165   -2.0108   32.2909 H   0  0  0  0  0  0  0  0  0  0  0  0
   -2.0401   -1.6548   30.6435 H   0  0  0  0  0  0  0  0  0  0  0  0
    0.8086   -5.1430   29.6820 H   0  0  0  0  0  0  0  0  0  0  0  0
    1.8657   -5.5921   31.0134 H   0  0  0  0  0  0  0  0  0  0  0  0
   -1.5983   -8.1887   33.3566 H   0  0  0  0  0  0  0  0  0  0  0  0
    1.3090   -6.1698   33.5202 H   0  0  0  0  0  0  0  0  0  0  0  0
    1.1630   -4.7539   36.2003 H   0  0  0  0  0  0  0  0  0  0  0  0
    1.8571   -6.3516   35.9046 H   0  0  0  0  0  0  0  0  0  0  0  0
    1.4574   -8.2508   37.5219 H   0  0  0  0  0  0  0  0  0  0  0  0
    0.8716   -8.8370   39.8545 H   0  0  0  0  0  0  0  0  0  0  0  0
   -0.7705   -5.1229   40.5499 H   0  0  0  0  0  0  0  0  0  0  0  0
   -0.2755   -4.3545   38.2428 H   0  0  0  0  0  0  0  0  0  0  0  0
    0.8814   -3.7956   33.7261 H   0  0  0  0  0  0  0  0  0  0  0  0
   -0.8157   -3.9753   33.3569 H   0  0  0  0  0  0  0  0  0  0  0  0
  1  2  1  0
  2  3  1  0
  3  4  2  0
  3  5  1  0
  5  6  1  0
  6  7  1  0
  7  8  1  0
  8  9  1  0
  9 10  1  0
  8 11  1  0
 11 12  1  0
 12 13  2  0
 13 14  1  0
 14 15  2  0
 15 16  1  0
 16 17  1  0
 17 18  1  0
 18 19  1  0
 19 20  1  0
 20 21  2  0
 21 22  1  0
 22 23  2  0
 23 24  1  0
 24 25  2  0
 17 26  1  0
 10  5  1  0
 16 12  1  0
 25 20  1  0
 26  8  1  0
  1 27  1  0
  1 28  1  0
  1 29  1  0
  2 30  1  0
  5 31  1  0
  6 32  1  0
  6 33  1  0
  7 34  1  0
  7 35  1  0
  9 36  1  0
  9 37  1  0
 10 38  1  0
 10 39  1  0
 11 40  1  0
 11 41  1  0
 15 42  1  0
 17 43  1  0
 19 44  1  0
 19 45  1  0
 21 46  1  0
 22 47  1  0
 24 48  1  0
 25 49  1  0
 26 50  1  0
 26 51  1  0
M  END
>  <Energy>  (75) 
54.444631042346927

>  <compound_id>  (75) 
2374

>  <target_id>  (75) 
1

>  <reference_id>  (75) 
135

>  <inspiration_ids>  (75) 
[164, 135]

>  <energy_score>  (75) 
-19.40452877921983

>  <distance_score>  (75) 
2.4288270295613037

>  <path>  (75) 
/opt/xchem-fragalysis-2/maxwin/BulkDock/SCRATCH/505736/C2374-P135/C2374-P135.minimised.mol

>  <scratch_subdir>  (75) 
/opt/xchem-fragalysis-2/maxwin/BulkDock/SCRATCH/505736/C2374-P135

>  <fragmenstein_runtime>  (75) 
4.4093077182769775

>  <fragmenstein_outcome>  (75) 
too moved

>  <fragmenstein_mode>  (75) 
expansion

>  <fragmenstein_error>  (75) 


$$$$
C2375-P164
     RDKit          3D

 58 62  0  0  0  0  0  0  0  0999 V2000
    3.3353   -4.7867   30.8936 O   0  0  0  0  0  0  0  0  0  0  0  0
    2.2285   -4.5128   31.2613 C   0  0  0  0  0  0  0  0  0  0  0  0
    1.2843   -5.5448   31.7455 C   0  0  0  0  0  0  0  0  0  0  0  0
    0.9285   -5.6136   33.1644 C   0  0  0  0  0  0  0  0  0  0  0  0
   -0.0172   -6.4851   33.5665 C   0  0  0  0  0  0  0  0  0  0  0  0
   -0.5777   -6.6398   35.2036 S   0  0  0  0  0  0  0  0  0  0  0  0
    0.8353   -6.1749   36.2438 C   0  0  0  0  0  0  0  0  0  0  0  0
    0.5277   -6.4259   37.6982 C   0  0  0  0  0  0  0  0  0  0  0  0
    0.8528   -7.6436   38.3046 C   0  0  0  0  0  0  0  0  0  0  0  0
    0.5030   -7.8489   39.6309 C   0  0  0  0  0  0  0  0  0  0  0  0
   -0.1324   -6.9281   40.3859 N   0  0  0  0  0  0  0  0  0  0  0  0
   -0.4428   -5.7592   39.7866 C   0  0  0  0  0  0  0  0  0  0  0  0
   -0.1406   -5.4657   38.4653 C   0  0  0  0  0  0  0  0  0  0  0  0
   -0.6241   -7.2680   32.5690 N   0  0  0  0  0  0  0  0  0  0  0  0
   -1.6243   -8.1922   32.6227 C   0  0  0  0  0  0  0  0  0  0  0  0
   -1.8692   -8.6733   31.4283 N   0  0  0  0  0  0  0  0  0  0  0  0
   -1.0379   -8.0542   30.5388 N   0  0  0  0  0  0  0  0  0  0  0  0
   -0.2890   -7.2226   31.2208 C   0  0  0  0  0  0  0  0  0  0  0  0
    0.7151   -6.3235   30.8159 C   0  0  0  0  0  0  0  0  0  0  0  0
    1.5970   -3.2617   31.4259 N   0  0  0  0  0  0  0  0  0  0  0  0
    0.8673   -2.8533   30.1166 C   0  0  0  0  0  0  0  0  0  0  0  0
   -0.2958   -1.8392   30.2332 C   0  0  0  0  0  0  0  0  0  0  0  0
    0.1819   -0.5079   30.7965 C   0  0  0  0  0  0  0  0  0  0  0  0
    1.1427   -0.8751   31.9065 C   0  0  0  0  0  0  0  0  0  0  0  0
    1.7995    0.2586   32.6346 C   0  0  0  0  0  0  0  0  0  0  0  0
    3.0477    0.7677   32.2630 C   0  0  0  0  0  0  0  0  0  0  0  0
    3.7273    1.6423   33.1074 C   0  0  0  0  0  0  0  0  0  0  0  0
    3.1598    2.0365   34.3225 C   0  0  0  0  0  0  0  0  0  0  0  0
    3.9117    2.9238   35.2672 C   0  0  0  0  0  0  0  0  0  0  0  0
    3.9050    2.3332   36.5598 O   0  0  0  0  0  0  0  0  0  0  0  0
    1.8720    1.5985   34.6473 C   0  0  0  0  0  0  0  0  0  0  0  0
    1.1963    0.7192   33.8111 C   0  0  0  0  0  0  0  0  0  0  0  0
    2.1299   -1.8876   31.3050 C   0  0  0  0  0  0  0  0  0  0  0  0
    1.4300   -4.9184   33.8296 H   0  0  0  0  0  0  0  0  0  0  0  0
    1.0730   -5.1148   36.1036 H   0  0  0  0  0  0  0  0  0  0  0  0
    1.7193   -6.7505   35.9461 H   0  0  0  0  0  0  0  0  0  0  0  0
    1.3512   -8.4379   37.7622 H   0  0  0  0  0  0  0  0  0  0  0  0
    0.7191   -8.7933   40.1260 H   0  0  0  0  0  0  0  0  0  0  0  0
   -0.9743   -5.0457   40.4106 H   0  0  0  0  0  0  0  0  0  0  0  0
   -0.4412   -4.5111   38.0455 H   0  0  0  0  0  0  0  0  0  0  0  0
   -2.1289   -8.4732   33.5334 H   0  0  0  0  0  0  0  0  0  0  0  0
    0.9747   -6.2472   29.7688 H   0  0  0  0  0  0  0  0  0  0  0  0
    1.5458   -2.6675   29.2652 H   0  0  0  0  0  0  0  0  0  0  0  0
    0.3683   -3.7757   29.7848 H   0  0  0  0  0  0  0  0  0  0  0  0
   -1.0611   -2.2590   30.8990 H   0  0  0  0  0  0  0  0  0  0  0  0
   -0.7673   -1.6907   29.2555 H   0  0  0  0  0  0  0  0  0  0  0  0
    0.6884    0.0751   30.0175 H   0  0  0  0  0  0  0  0  0  0  0  0
   -0.6603    0.0910   31.1594 H   0  0  0  0  0  0  0  0  0  0  0  0
    0.5648   -1.4194   32.6718 H   0  0  0  0  0  0  0  0  0  0  0  0
    3.5346    0.4553   31.3431 H   0  0  0  0  0  0  0  0  0  0  0  0
    4.7173    1.9912   32.8231 H   0  0  0  0  0  0  0  0  0  0  0  0
    3.4358    3.9087   35.3173 H   0  0  0  0  0  0  0  0  0  0  0  0
    4.9534    3.0500   34.9548 H   0  0  0  0  0  0  0  0  0  0  0  0
    4.4140    2.9243   37.1383 H   0  0  0  0  0  0  0  0  0  0  0  0
    1.4132    1.9082   35.5842 H   0  0  0  0  0  0  0  0  0  0  0  0
    0.2201    0.3503   34.1187 H   0  0  0  0  0  0  0  0  0  0  0  0
    2.6643   -1.5961   30.3840 H   0  0  0  0  0  0  0  0  0  0  0  0
    2.9792   -1.9512   32.0057 H   0  0  0  0  0  0  0  0  0  0  0  0
  1  2  2  0
  2  3  1  0
  3  4  1  0
  4  5  2  0
  5  6  1  0
  6  7  1  0
  7  8  1  0
  8  9  2  0
  9 10  1  0
 10 11  2  0
 11 12  1  0
 12 13  2  0
  5 14  1  0
 14 15  1  0
 15 16  2  0
 16 17  1  0
 17 18  2  0
 18 19  1  0
  2 20  1  0
 20 21  1  0
 21 22  1  0
 22 23  1  0
 23 24  1  0
 24 25  1  0
 25 26  2  0
 26 27  1  0
 27 28  2  0
 28 29  1  0
 29 30  1  0
 28 31  1  0
 31 32  2  0
 24 33  1  0
 19  3  2  0
 33 20  1  0
 13  8  1  0
 18 14  1  0
 32 25  1  0
  4 34  1  0
  7 35  1  0
  7 36  1  0
  9 37  1  0
 10 38  1  0
 12 39  1  0
 13 40  1  0
 15 41  1  0
 19 42  1  0
 21 43  1  0
 21 44  1  0
 22 45  1  0
 22 46  1  0
 23 47  1  0
 23 48  1  0
 24 49  1  0
 26 50  1  0
 27 51  1  0
 29 52  1  0
 29 53  1  0
 30 54  1  0
 31 55  1  0
 32 56  1  0
 33 57  1  0
 33 58  1  0
M  END
>  <Energy>  (76) 
154.35163839335456

>  <compound_id>  (76) 
2375

>  <target_id>  (76) 
1

>  <reference_id>  (76) 
164

>  <inspiration_ids>  (76) 
[164, 136]

>  <energy_score>  (76) 
38.75233171223404

>  <distance_score>  (76) 
2.265982472480295

>  <path>  (76) 
/opt/xchem-fragalysis-2/maxwin/BulkDock/SCRATCH/505736/C2375-P164/C2375-P164.minimised.mol

>  <scratch_subdir>  (76) 
/opt/xchem-fragalysis-2/maxwin/BulkDock/SCRATCH/505736/C2375-P164

>  <fragmenstein_runtime>  (76) 
6.220797300338745

>  <fragmenstein_outcome>  (76) 
too moved

>  <fragmenstein_mode>  (76) 
expansion

>  <fragmenstein_error>  (76) 


$$$$
C2375-P136
     RDKit          3D

 58 62  0  0  0  0  0  0  0  0999 V2000
   -0.7280   -2.1217   32.0477 O   0  0  0  0  0  0  0  0  0  0  0  0
    0.0685   -2.9611   31.7344 C   0  0  0  0  0  0  0  0  0  0  0  0
   -0.2351   -4.3939   31.9798 C   0  0  0  0  0  0  0  0  0  0  0  0
   -0.5231   -4.8184   33.3457 C   0  0  0  0  0  0  0  0  0  0  0  0
   -0.7956   -6.1116   33.5956 C   0  0  0  0  0  0  0  0  0  0  0  0
   -1.1086   -6.6946   35.2018 S   0  0  0  0  0  0  0  0  0  0  0  0
    0.3308   -6.0765   36.1304 C   0  0  0  0  0  0  0  0  0  0  0  0
    0.1962   -6.3222   37.6100 C   0  0  0  0  0  0  0  0  0  0  0  0
    0.6504   -7.5117   38.1845 C   0  0  0  0  0  0  0  0  0  0  0  0
    0.4821   -7.7082   39.5463 C   0  0  0  0  0  0  0  0  0  0  0  0
   -0.0928   -6.8059   40.3684 N   0  0  0  0  0  0  0  0  0  0  0  0
   -0.5353   -5.6650   39.7969 C   0  0  0  0  0  0  0  0  0  0  0  0
   -0.4167   -5.3815   38.4438 C   0  0  0  0  0  0  0  0  0  0  0  0
   -0.8850   -6.9670   32.4880 N   0  0  0  0  0  0  0  0  0  0  0  0
   -1.3712   -8.2324   32.3545 C   0  0  0  0  0  0  0  0  0  0  0  0
   -1.2458   -8.6542   31.1181 N   0  0  0  0  0  0  0  0  0  0  0  0
   -0.7136   -7.6290   30.3804 N   0  0  0  0  0  0  0  0  0  0  0  0
   -0.5491   -6.6056   31.1889 C   0  0  0  0  0  0  0  0  0  0  0  0
   -0.1894   -5.2586   30.9506 C   0  0  0  0  0  0  0  0  0  0  0  0
    1.3813   -2.8397   31.2145 N   0  0  0  0  0  0  0  0  0  0  0  0
    2.3791   -2.8158   32.3383 C   0  0  0  0  0  0  0  0  0  0  0  0
    3.6625   -3.5688   31.9544 C   0  0  0  0  0  0  0  0  0  0  0  0
    4.2941   -2.9074   30.7417 C   0  0  0  0  0  0  0  0  0  0  0  0
    3.7265   -1.4984   30.6361 C   0  0  0  0  0  0  0  0  0  0  0  0
    4.2276   -0.4889   31.6764 C   0  0  0  0  0  0  0  0  0  0  0  0
    3.6443    0.7891   31.7006 C   0  0  0  0  0  0  0  0  0  0  0  0
    3.8121    1.6342   32.7947 C   0  0  0  0  0  0  0  0  0  0  0  0
    4.6094    1.2418   33.8694 C   0  0  0  0  0  0  0  0  0  0  0  0
    4.6630    2.0730   35.1177 C   0  0  0  0  0  0  0  0  0  0  0  0
    3.6146    1.6893   35.9989 O   0  0  0  0  0  0  0  0  0  0  0  0
    5.2936    0.0271   33.7960 C   0  0  0  0  0  0  0  0  0  0  0  0
    5.1259   -0.8176   32.6983 C   0  0  0  0  0  0  0  0  0  0  0  0
    2.1630   -1.6146   30.7787 C   0  0  0  0  0  0  0  0  0  0  0  0
   -0.5225   -4.0530   34.1168 H   0  0  0  0  0  0  0  0  0  0  0  0
    0.4630   -5.0019   35.9663 H   0  0  0  0  0  0  0  0  0  0  0  0
    1.2357   -6.5660   35.7518 H   0  0  0  0  0  0  0  0  0  0  0  0
    1.1001   -8.2944   37.5866 H   0  0  0  0  0  0  0  0  0  0  0  0
    0.8025   -8.6329   40.0177 H   0  0  0  0  0  0  0  0  0  0  0  0
   -1.0196   -4.9651   40.4726 H   0  0  0  0  0  0  0  0  0  0  0  0
   -0.8152   -4.4503   38.0539 H   0  0  0  0  0  0  0  0  0  0  0  0
   -1.8289   -8.7605   33.1703 H   0  0  0  0  0  0  0  0  0  0  0  0
    0.0348   -4.9432   29.9362 H   0  0  0  0  0  0  0  0  0  0  0  0
    2.4664   -1.8775   32.9108 H   0  0  0  0  0  0  0  0  0  0  0  0
    1.9576   -3.4549   33.1299 H   0  0  0  0  0  0  0  0  0  0  0  0
    3.4371   -4.6168   31.7218 H   0  0  0  0  0  0  0  0  0  0  0  0
    4.3487   -3.5853   32.8074 H   0  0  0  0  0  0  0  0  0  0  0  0
    5.3876   -2.9332   30.7870 H   0  0  0  0  0  0  0  0  0  0  0  0
    4.0096   -3.4713   29.8436 H   0  0  0  0  0  0  0  0  0  0  0  0
    3.9782   -1.0810   29.6523 H   0  0  0  0  0  0  0  0  0  0  0  0
    2.9841    1.1140   30.8970 H   0  0  0  0  0  0  0  0  0  0  0  0
    3.2849    2.5863   32.8172 H   0  0  0  0  0  0  0  0  0  0  0  0
    4.5506    3.1368   34.8833 H   0  0  0  0  0  0  0  0  0  0  0  0
    5.6197    1.9512   35.6359 H   0  0  0  0  0  0  0  0  0  0  0  0
    2.9473    1.2104   35.4784 H   0  0  0  0  0  0  0  0  0  0  0  0
    5.9391   -0.2856   34.6150 H   0  0  0  0  0  0  0  0  0  0  0  0
    5.6686   -1.7575   32.7066 H   0  0  0  0  0  0  0  0  0  0  0  0
    1.6878   -0.7458   31.2616 H   0  0  0  0  0  0  0  0  0  0  0  0
    1.7975   -1.5120   29.7439 H   0  0  0  0  0  0  0  0  0  0  0  0
  1  2  2  0
  2  3  1  0
  3  4  1  0
  4  5  2  0
  5  6  1  0
  6  7  1  0
  7  8  1  0
  8  9  2  0
  9 10  1  0
 10 11  2  0
 11 12  1  0
 12 13  2  0
  5 14  1  0
 14 15  1  0
 15 16  2  0
 16 17  1  0
 17 18  2  0
 18 19  1  0
  2 20  1  0
 20 21  1  0
 21 22  1  0
 22 23  1  0
 23 24  1  0
 24 25  1  0
 25 26  2  0
 26 27  1  0
 27 28  2  0
 28 29  1  0
 29 30  1  0
 28 31  1  0
 31 32  2  0
 24 33  1  0
 19  3  2  0
 33 20  1  0
 13  8  1  0
 18 14  1  0
 32 25  1  0
  4 34  1  0
  7 35  1  0
  7 36  1  0
  9 37  1  0
 10 38  1  0
 12 39  1  0
 13 40  1  0
 15 41  1  0
 19 42  1  0
 21 43  1  0
 21 44  1  0
 22 45  1  0
 22 46  1  0
 23 47  1  0
 23 48  1  0
 24 49  1  0
 26 50  1  0
 27 51  1  0
 29 52  1  0
 29 53  1  0
 30 54  1  0
 31 55  1  0
 32 56  1  0
 33 57  1  0
 33 58  1  0
M  END
>  <Energy>  (77) 
163.31170743012186

>  <compound_id>  (77) 
2375

>  <target_id>  (77) 
1

>  <reference_id>  (77) 
136

>  <inspiration_ids>  (77) 
[164, 136]

>  <energy_score>  (77) 
47.71240074900237

>  <distance_score>  (77) 
2.2453314753532223

>  <path>  (77) 
/opt/xchem-fragalysis-2/maxwin/BulkDock/SCRATCH/505736/C2375-P136/C2375-P136.minimised.mol

>  <scratch_subdir>  (77) 
/opt/xchem-fragalysis-2/maxwin/BulkDock/SCRATCH/505736/C2375-P136

>  <fragmenstein_runtime>  (77) 
5.540257930755615

>  <fragmenstein_outcome>  (77) 
too moved

>  <fragmenstein_mode>  (77) 
expansion

>  <fragmenstein_error>  (77) 


$$$$
C2377-P164
     RDKit          3D

 48 52  0  0  0  0  0  0  0  0999 V2000
    0.3582    3.0534   27.1287 C   0  0  0  0  0  0  0  0  0  0  0  0
   -1.0112    3.0548   27.3641 C   0  0  0  0  0  0  0  0  0  0  0  0
   -1.6292    1.9286   27.8784 C   0  0  0  0  0  0  0  0  0  0  0  0
   -0.8708    0.8035   28.1535 C   0  0  0  0  0  0  0  0  0  0  0  0
   -1.3705   -0.3412   28.8647 C   0  0  0  0  0  0  0  0  0  0  0  0
   -1.6262   -0.3906   30.1548 N   0  0  0  0  0  0  0  0  0  0  0  0
   -1.1811   -1.6318   30.6075 N   0  0  0  0  0  0  0  0  0  0  0  0
   -0.7022   -2.2821   29.5600 C   0  0  0  0  0  0  0  0  0  0  0  0
    0.4045   -3.2882   29.5017 C   0  0  0  0  0  0  0  0  0  0  0  0
    0.1611   -4.6508   29.9300 N   0  0  0  0  0  0  0  0  0  0  0  0
    0.1882   -5.1656   31.2160 C   0  0  0  0  0  0  0  0  0  0  0  0
    0.7255   -4.5403   32.2881 C   0  0  0  0  0  0  0  0  0  0  0  0
    0.6290   -5.0564   33.6493 C   0  0  0  0  0  0  0  0  0  0  0  0
   -0.0636   -6.1863   33.8919 C   0  0  0  0  0  0  0  0  0  0  0  0
   -0.3766   -6.8370   35.4736 S   0  0  0  0  0  0  0  0  0  0  0  0
    0.7977   -6.0261   36.5930 C   0  0  0  0  0  0  0  0  0  0  0  0
    0.5354   -6.4166   38.0256 C   0  0  0  0  0  0  0  0  0  0  0  0
    0.8842   -7.6812   38.5113 C   0  0  0  0  0  0  0  0  0  0  0  0
    0.5762   -8.0046   39.8245 C   0  0  0  0  0  0  0  0  0  0  0  0
   -0.0297   -7.1544   40.6803 N   0  0  0  0  0  0  0  0  0  0  0  0
   -0.3586   -5.9384   40.1980 C   0  0  0  0  0  0  0  0  0  0  0  0
   -0.1046   -5.5299   38.8978 C   0  0  0  0  0  0  0  0  0  0  0  0
   -0.6002   -6.8515   32.7759 N   0  0  0  0  0  0  0  0  0  0  0  0
   -1.3789   -7.9731   32.6672 C   0  0  0  0  0  0  0  0  0  0  0  0
   -1.5793   -8.2856   31.4084 N   0  0  0  0  0  0  0  0  0  0  0  0
   -0.9684   -7.3251   30.6467 N   0  0  0  0  0  0  0  0  0  0  0  0
   -0.4345   -6.4361   31.4640 C   0  0  0  0  0  0  0  0  0  0  0  0
   -1.1499   -1.6275   28.4325 N   0  0  0  0  0  0  0  0  0  0  0  0
    0.5043    0.8042   27.9006 C   0  0  0  0  0  0  0  0  0  0  0  0
    1.1202    1.9302   27.3988 C   0  0  0  0  0  0  0  0  0  0  0  0
    0.8317    3.9529   26.7416 H   0  0  0  0  0  0  0  0  0  0  0  0
   -1.6030    3.9455   27.1597 H   0  0  0  0  0  0  0  0  0  0  0  0
   -2.6914    1.9743   28.0745 H   0  0  0  0  0  0  0  0  0  0  0  0
    1.2611   -2.8746   30.0484 H   0  0  0  0  0  0  0  0  0  0  0  0
    0.7574   -3.3498   28.4660 H   0  0  0  0  0  0  0  0  0  0  0  0
   -0.4451   -5.1793   29.2980 H   0  0  0  0  0  0  0  0  0  0  0  0
    1.1928   -3.5650   32.1894 H   0  0  0  0  0  0  0  0  0  0  0  0
    1.0660   -4.4327   34.4193 H   0  0  0  0  0  0  0  0  0  0  0  0
    0.7112   -4.9386   36.5036 H   0  0  0  0  0  0  0  0  0  0  0  0
    1.8227   -6.2997   36.3188 H   0  0  0  0  0  0  0  0  0  0  0  0
    1.3620   -8.4229   37.8819 H   0  0  0  0  0  0  0  0  0  0  0  0
    0.8049   -8.9895   40.2261 H   0  0  0  0  0  0  0  0  0  0  0  0
   -0.8645   -5.2827   40.9013 H   0  0  0  0  0  0  0  0  0  0  0  0
   -0.4219   -4.5430   38.5772 H   0  0  0  0  0  0  0  0  0  0  0  0
   -1.7694   -8.5029   33.5194 H   0  0  0  0  0  0  0  0  0  0  0  0
   -0.8990   -1.8434   27.4812 H   0  0  0  0  0  0  0  0  0  0  0  0
    1.1239   -0.0518   28.1548 H   0  0  0  0  0  0  0  0  0  0  0  0
    2.1937    1.9481   27.2356 H   0  0  0  0  0  0  0  0  0  0  0  0
  1  2  2  0
  2  3  1  0
  3  4  2  0
  4  5  1  0
  5  6  2  0
  6  7  1  0
  7  8  2  0
  8  9  1  0
  9 10  1  0
 10 11  1  0
 11 12  2  0
 12 13  1  0
 13 14  2  0
 14 15  1  0
 15 16  1  0
 16 17  1  0
 17 18  2  0
 18 19  1  0
 19 20  2  0
 20 21  1  0
 21 22  2  0
 14 23  1  0
 23 24  1  0
 24 25  2  0
 25 26  1  0
 26 27  2  0
  8 28  1  0
  4 29  1  0
 29 30  2  0
 30  1  1  0
 28  5  1  0
 27 11  1  0
 22 17  1  0
 27 23  1  0
  1 31  1  0
  2 32  1  0
  3 33  1  0
  9 34  1  0
  9 35  1  0
 10 36  1  0
 12 37  1  0
 13 38  1  0
 16 39  1  0
 16 40  1  0
 18 41  1  0
 19 42  1  0
 21 43  1  0
 22 44  1  0
 24 45  1  0
 28 46  1  0
 29 47  1  0
 30 48  1  0
M  END
>  <Energy>  (78) 
99.343664404742256

>  <compound_id>  (78) 
2377

>  <target_id>  (78) 
1

>  <reference_id>  (78) 
164

>  <inspiration_ids>  (78) 
[164, 142]

>  <energy_score>  (78) 
-8.888002567491583

>  <distance_score>  (78) 
2.3622512847193136

>  <path>  (78) 
/opt/xchem-fragalysis-2/maxwin/BulkDock/SCRATCH/505736/C2377-P164/C2377-P164.minimised.mol

>  <scratch_subdir>  (78) 
/opt/xchem-fragalysis-2/maxwin/BulkDock/SCRATCH/505736/C2377-P164

>  <fragmenstein_runtime>  (78) 
6.853352785110474

>  <fragmenstein_outcome>  (78) 
too moved

>  <fragmenstein_mode>  (78) 
expansion

>  <fragmenstein_error>  (78) 


$$$$
C2377-P142
     RDKit          3D

 48 52  0  0  0  0  0  0  0  0999 V2000
    0.9319    2.4939   27.1493 C   0  0  0  0  0  0  0  0  0  0  0  0
   -0.3822    2.8739   27.4056 C   0  0  0  0  0  0  0  0  0  0  0  0
   -1.2773    1.9557   27.9237 C   0  0  0  0  0  0  0  0  0  0  0  0
   -0.8452    0.6575   28.1773 C   0  0  0  0  0  0  0  0  0  0  0  0
   -1.5954   -0.1840   29.0643 C   0  0  0  0  0  0  0  0  0  0  0  0
   -2.2649    0.2428   30.1131 N   0  0  0  0  0  0  0  0  0  0  0  0
   -2.2812   -0.7748   31.0355 N   0  0  0  0  0  0  0  0  0  0  0  0
   -1.6627   -1.8078   30.4967 C   0  0  0  0  0  0  0  0  0  0  0  0
   -1.2778   -3.0503   31.1877 C   0  0  0  0  0  0  0  0  0  0  0  0
   -0.2364   -3.9261   30.5822 N   0  0  0  0  0  0  0  0  0  0  0  0
    0.2727   -4.8894   31.4700 C   0  0  0  0  0  0  0  0  0  0  0  0
    1.1235   -4.5243   32.4556 C   0  0  0  0  0  0  0  0  0  0  0  0
    1.2609   -5.2911   33.6844 C   0  0  0  0  0  0  0  0  0  0  0  0
    0.4434   -6.3415   33.9020 C   0  0  0  0  0  0  0  0  0  0  0  0
    0.3329   -7.1684   35.4191 S   0  0  0  0  0  0  0  0  0  0  0  0
    0.8203   -5.9361   36.6588 C   0  0  0  0  0  0  0  0  0  0  0  0
    0.5112   -6.3590   38.0734 C   0  0  0  0  0  0  0  0  0  0  0  0
    0.9104   -7.6009   38.5791 C   0  0  0  0  0  0  0  0  0  0  0  0
    0.6054   -7.9226   39.8922 C   0  0  0  0  0  0  0  0  0  0  0  0
   -0.0365   -7.0915   40.7390 N   0  0  0  0  0  0  0  0  0  0  0  0
   -0.4012   -5.8910   40.2432 C   0  0  0  0  0  0  0  0  0  0  0  0
   -0.1519   -5.4842   38.9404 C   0  0  0  0  0  0  0  0  0  0  0  0
   -0.3292   -6.7916   32.8163 N   0  0  0  0  0  0  0  0  0  0  0  0
   -1.2123   -7.8278   32.6692 C   0  0  0  0  0  0  0  0  0  0  0  0
   -1.5752   -7.9565   31.4123 N   0  0  0  0  0  0  0  0  0  0  0  0
   -1.0053   -6.9229   30.7147 N   0  0  0  0  0  0  0  0  0  0  0  0
   -0.3279   -6.1856   31.5703 C   0  0  0  0  0  0  0  0  0  0  0  0
   -1.4199   -1.5395   29.1804 N   0  0  0  0  0  0  0  0  0  0  0  0
    0.4548    0.2614   27.8538 C   0  0  0  0  0  0  0  0  0  0  0  0
    1.3525    1.1902   27.3716 C   0  0  0  0  0  0  0  0  0  0  0  0
    1.6344    3.2325   26.7697 H   0  0  0  0  0  0  0  0  0  0  0  0
   -0.7029    3.8989   27.2333 H   0  0  0  0  0  0  0  0  0  0  0  0
   -2.2818    2.2744   28.1955 H   0  0  0  0  0  0  0  0  0  0  0  0
   -2.1818   -3.6429   31.3301 H   0  0  0  0  0  0  0  0  0  0  0  0
   -0.9511   -2.7527   32.1935 H   0  0  0  0  0  0  0  0  0  0  0  0
   -0.6647   -4.4222   29.7921 H   0  0  0  0  0  0  0  0  0  0  0  0
    1.5545   -3.5251   32.4563 H   0  0  0  0  0  0  0  0  0  0  0  0
    1.9294   -4.8798   34.4322 H   0  0  0  0  0  0  0  0  0  0  0  0
    0.2983   -4.9986   36.4357 H   0  0  0  0  0  0  0  0  0  0  0  0
    1.8972   -5.7480   36.5871 H   0  0  0  0  0  0  0  0  0  0  0  0
    1.4242   -8.3314   37.9635 H   0  0  0  0  0  0  0  0  0  0  0  0
    0.8742   -8.8908   40.3035 H   0  0  0  0  0  0  0  0  0  0  0  0
   -0.9280   -5.2433   40.9387 H   0  0  0  0  0  0  0  0  0  0  0  0
   -0.4866   -4.5041   38.6163 H   0  0  0  0  0  0  0  0  0  0  0  0
   -1.5415   -8.4388   33.4915 H   0  0  0  0  0  0  0  0  0  0  0  0
   -0.9521   -2.1393   28.5159 H   0  0  0  0  0  0  0  0  0  0  0  0
    0.8241   -0.7366   28.0690 H   0  0  0  0  0  0  0  0  0  0  0  0
    2.3827    0.9090   27.1736 H   0  0  0  0  0  0  0  0  0  0  0  0
  1  2  2  0
  2  3  1  0
  3  4  2  0
  4  5  1  0
  5  6  2  0
  6  7  1  0
  7  8  2  0
  8  9  1  0
  9 10  1  0
 10 11  1  0
 11 12  2  0
 12 13  1  0
 13 14  2  0
 14 15  1  0
 15 16  1  0
 16 17  1  0
 17 18  2  0
 18 19  1  0
 19 20  2  0
 20 21  1  0
 21 22  2  0
 14 23  1  0
 23 24  1  0
 24 25  2  0
 25 26  1  0
 26 27  2  0
  8 28  1  0
  4 29  1  0
 29 30  2  0
 30  1  1  0
 28  5  1  0
 27 11  1  0
 22 17  1  0
 27 23  1  0
  1 31  1  0
  2 32  1  0
  3 33  1  0
  9 34  1  0
  9 35  1  0
 10 36  1  0
 12 37  1  0
 13 38  1  0
 16 39  1  0
 16 40  1  0
 18 41  1  0
 19 42  1  0
 21 43  1  0
 22 44  1  0
 24 45  1  0
 28 46  1  0
 29 47  1  0
 30 48  1  0
M  END
>  <Energy>  (79) 
98.623506612804562

>  <compound_id>  (79) 
2377

>  <target_id>  (79) 
1

>  <reference_id>  (79) 
142

>  <inspiration_ids>  (79) 
[164, 142]

>  <energy_score>  (79) 
-9.6081603594304

>  <distance_score>  (79) 
2.144787090558811

>  <path>  (79) 
/opt/xchem-fragalysis-2/maxwin/BulkDock/SCRATCH/505736/C2377-P142/C2377-P142.minimised.mol

>  <scratch_subdir>  (79) 
/opt/xchem-fragalysis-2/maxwin/BulkDock/SCRATCH/505736/C2377-P142

>  <fragmenstein_runtime>  (79) 
6.168546915054321

>  <fragmenstein_outcome>  (79) 
too moved

>  <fragmenstein_mode>  (79) 
expansion

>  <fragmenstein_error>  (79) 


$$$$
C2378-P164
     RDKit          3D

 60 62  0  0  0  0  0  0  0  0999 V2000
    0.1660   -6.4680   35.7466 C   0  0  0  0  0  0  0  0  0  0  0  0
    0.6353   -5.0938   35.4006 C   0  0  0  0  0  0  0  0  0  0  0  0
   -0.5885   -3.8870   34.8705 S   0  0  0  0  0  4  0  0  0  0  0  0
    0.0163   -3.6224   32.9990 C   0  0  0  0  0  0  0  0  0  0  0  0
   -1.1293   -2.3691   32.1168 S   0  0  0  0  0  6  0  0  0  0  0  0
   -1.3131   -1.2779   33.3560 O   0  0  0  0  0  0  0  0  0  0  0  0
   -0.6251   -0.9829   30.8069 C   0  0  0  0  0  0  0  0  0  0  0  0
   -1.6874   -0.1748   29.9206 C   0  0  0  0  0  0  0  0  0  0  0  0
   -1.3112    1.2568   29.4149 C   0  0  0  0  0  0  0  0  0  0  0  0
   -0.6450    1.5831   28.0619 C   0  0  0  0  0  0  0  0  0  0  0  0
    0.8779    1.7936   28.1717 C   0  0  0  0  0  0  0  0  0  0  0  0
    1.7300    0.5217   28.3299 C   0  0  0  0  0  0  0  0  0  0  0  0
    0.9338   -0.6170   28.9241 C   0  0  0  0  0  0  0  0  0  0  0  0
    1.4216   -1.9919   28.6070 C   0  0  0  0  0  0  0  0  0  0  0  0
    0.2537   -2.8404   28.7475 N   0  0  0  0  0  0  0  0  0  0  0  0
    0.5325   -4.1675   29.1768 C   0  0  0  0  0  0  0  0  0  0  0  0
    1.8502   -4.7776   28.7316 C   0  0  0  0  0  0  0  0  0  0  0  0
    0.7769   -0.5124   30.4503 C   0  0  0  0  0  0  0  0  0  0  0  0
    1.4560   -3.0675   33.1243 C   0  0  0  0  0  0  0  0  0  0  0  0
    2.4589   -3.6838   32.1564 C   0  0  0  0  0  0  0  0  0  0  0  0
    2.3998   -5.2031   32.0947 C   0  0  0  0  0  0  0  0  0  0  0  0
    1.0195   -5.7098   31.9918 C   0  0  0  0  0  0  0  0  0  0  0  0
    0.5945   -6.8465   31.4798 N   0  0  0  0  0  0  0  0  0  0  0  0
   -0.7124   -7.0033   31.8541 N   0  0  0  0  0  0  0  0  0  0  0  0
   -1.0237   -5.9465   32.5648 C   0  0  0  0  0  0  0  0  0  0  0  0
   -0.0470   -5.0028   32.4777 N   0  0  0  0  0  0  0  0  0  0  0  0
    0.3981   -6.6631   36.7969 H   0  0  0  0  0  0  0  0  0  0  0  0
    0.7100   -7.1917   35.1337 H   0  0  0  0  0  0  0  0  0  0  0  0
   -0.9078   -6.5875   35.5877 H   0  0  0  0  0  0  0  0  0  0  0  0
    1.6989   -4.8480   35.5298 H   0  0  0  0  0  0  0  0  0  0  0  0
   -0.0771   -2.7353   35.3655 H   0  0  0  0  0  0  0  0  0  0  0  0
   -2.3445   -2.8878   31.8307 H   0  0  0  0  0  0  0  0  0  0  0  0
   -1.9850   -0.8194   29.0892 H   0  0  0  0  0  0  0  0  0  0  0  0
   -2.5358   -0.0711   30.6047 H   0  0  0  0  0  0  0  0  0  0  0  0
   -2.2545    1.7913   29.3545 H   0  0  0  0  0  0  0  0  0  0  0  0
   -0.6933    1.7108   30.1875 H   0  0  0  0  0  0  0  0  0  0  0  0
   -1.0569    2.5452   27.7259 H   0  0  0  0  0  0  0  0  0  0  0  0
   -0.9188    0.8639   27.2828 H   0  0  0  0  0  0  0  0  0  0  0  0
    1.0882    2.4674   29.0120 H   0  0  0  0  0  0  0  0  0  0  0  0
    1.2252    2.3249   27.2765 H   0  0  0  0  0  0  0  0  0  0  0  0
    2.6255    0.7395   28.9240 H   0  0  0  0  0  0  0  0  0  0  0  0
    2.0967    0.2343   27.3394 H   0  0  0  0  0  0  0  0  0  0  0  0
   -0.0069   -0.6017   28.3831 H   0  0  0  0  0  0  0  0  0  0  0  0
    2.2316   -2.2385   29.2990 H   0  0  0  0  0  0  0  0  0  0  0  0
    1.8717   -2.0624   27.6259 H   0  0  0  0  0  0  0  0  0  0  0  0
   -0.3418   -2.8019   27.9187 H   0  0  0  0  0  0  0  0  0  0  0  0
   -0.3210   -4.8045   28.9552 H   0  0  0  0  0  0  0  0  0  0  0  0
    0.5339   -4.1057   30.2508 H   0  0  0  0  0  0  0  0  0  0  0  0
    1.8989   -5.8285   29.0346 H   0  0  0  0  0  0  0  0  0  0  0  0
    1.9901   -4.7419   27.6515 H   0  0  0  0  0  0  0  0  0  0  0  0
    2.7213   -4.2918   29.1786 H   0  0  0  0  0  0  0  0  0  0  0  0
    1.5107   -1.1097   30.9906 H   0  0  0  0  0  0  0  0  0  0  0  0
    0.9000    0.5105   30.8172 H   0  0  0  0  0  0  0  0  0  0  0  0
    1.4536   -1.9784   33.0101 H   0  0  0  0  0  0  0  0  0  0  0  0
    1.8725   -3.2153   34.1248 H   0  0  0  0  0  0  0  0  0  0  0  0
    3.4734   -3.3734   32.4349 H   0  0  0  0  0  0  0  0  0  0  0  0
    2.2911   -3.2623   31.1689 H   0  0  0  0  0  0  0  0  0  0  0  0
    2.9897   -5.5460   31.2426 H   0  0  0  0  0  0  0  0  0  0  0  0
    2.8593   -5.6224   32.9975 H   0  0  0  0  0  0  0  0  0  0  0  0
   -1.8879   -5.8424   33.1857 H   0  0  0  0  0  0  0  0  0  0  0  0
  1  2  1  0
  2  3  2  3
  3  4  1  0
  4  5  1  0
  5  6  2  0
  5  7  2  0
  7  8  1  0
  8  9  1  0
  9 10  1  0
 10 11  1  0
 11 12  1  0
 12 13  1  0
 13 14  1  0
 14 15  1  0
 15 16  1  0
 16 17  1  0
 13 18  1  0
  4 19  1  0
 19 20  1  0
 20 21  1  0
 21 22  1  0
 22 23  2  0
 23 24  1  0
 24 25  2  0
 25 26  1  0
 26  4  1  0
 18  7  1  0
 26 22  1  0
  1 27  1  0
  1 28  1  0
  1 29  1  0
  2 30  1  0
  3 31  1  0
  5 32  1  0
  8 33  1  0
  8 34  1  0
  9 35  1  0
  9 36  1  0
 10 37  1  0
 10 38  1  0
 11 39  1  0
 11 40  1  0
 12 41  1  0
 12 42  1  0
 13 43  1  0
 14 44  1  0
 14 45  1  0
 15 46  1  0
 16 47  1  0
 16 48  1  0
 17 49  1  0
 17 50  1  0
 17 51  1  0
 18 52  1  0
 18 53  1  0
 19 54  1  0
 19 55  1  0
 20 56  1  0
 20 57  1  0
 21 58  1  0
 21 59  1  0
 25 60  1  0
M  END
>  <Energy>  (80) 
124.76998590892595

>  <compound_id>  (80) 
2378

>  <target_id>  (80) 
1

>  <reference_id>  (80) 
164

>  <inspiration_ids>  (80) 
[164, 147]

>  <energy_score>  (80) 
-201.30832297465304

>  <distance_score>  (80) 
2.743572807138837

>  <path>  (80) 
/opt/xchem-fragalysis-2/maxwin/BulkDock/SCRATCH/505736/C2378-P164/C2378-P164.minimised.mol

>  <scratch_subdir>  (80) 
/opt/xchem-fragalysis-2/maxwin/BulkDock/SCRATCH/505736/C2378-P164

>  <fragmenstein_runtime>  (80) 
5.600551128387451

>  <fragmenstein_outcome>  (80) 
too moved

>  <fragmenstein_mode>  (80) 
expansion

>  <fragmenstein_error>  (80) 


$$$$
C2378-P147
     RDKit          3D

 60 62  0  0  0  0  0  0  0  0999 V2000
   -1.4205   -2.6390   36.8187 C   0  0  0  0  0  0  0  0  0  0  0  0
   -1.0948   -2.9660   35.4005 C   0  0  0  0  0  0  0  0  0  0  0  0
    0.5397   -3.6127   35.0616 S   0  0  0  0  0  4  0  0  0  0  0  0
    0.5877   -3.3319   33.1370 C   0  0  0  0  0  0  0  0  0  0  0  0
   -0.2107   -1.7369   32.5394 S   0  0  0  0  0  6  0  0  0  0  0  0
    0.0758   -0.7446   33.8287 O   0  0  0  0  0  0  0  0  0  0  0  0
    0.6222   -0.5550   31.1846 C   0  0  0  0  0  0  0  0  0  0  0  0
    1.1478    0.9032   31.4697 C   0  0  0  0  0  0  0  0  0  0  0  0
    0.2251    2.0077   30.9577 C   0  0  0  0  0  0  0  0  0  0  0  0
    0.5231    2.7252   29.6317 C   0  0  0  0  0  0  0  0  0  0  0  0
    0.7853    1.9240   28.3660 C   0  0  0  0  0  0  0  0  0  0  0  0
   -0.2428    0.8660   27.9711 C   0  0  0  0  0  0  0  0  0  0  0  0
   -0.5541   -0.2352   28.9859 C   0  0  0  0  0  0  0  0  0  0  0  0
   -1.3612   -1.3445   28.3219 C   0  0  0  0  0  0  0  0  0  0  0  0
   -1.8326   -2.3077   29.2981 N   0  0  0  0  0  0  0  0  0  0  0  0
   -0.9165   -3.3366   29.7062 C   0  0  0  0  0  0  0  0  0  0  0  0
   -0.1082   -4.0247   28.6463 C   0  0  0  0  0  0  0  0  0  0  0  0
    0.7084   -0.7770   29.6596 C   0  0  0  0  0  0  0  0  0  0  0  0
    2.1130   -3.2336   32.8554 C   0  0  0  0  0  0  0  0  0  0  0  0
    2.4819   -3.7116   31.4582 C   0  0  0  0  0  0  0  0  0  0  0  0
    2.0562   -5.1516   31.2795 C   0  0  0  0  0  0  0  0  0  0  0  0
    0.6681   -5.3992   31.6702 C   0  0  0  0  0  0  0  0  0  0  0  0
   -0.0806   -6.4321   31.3518 N   0  0  0  0  0  0  0  0  0  0  0  0
   -1.1469   -6.4292   32.2015 N   0  0  0  0  0  0  0  0  0  0  0  0
   -1.0075   -5.3868   32.9894 C   0  0  0  0  0  0  0  0  0  0  0  0
    0.0348   -4.6053   32.5893 N   0  0  0  0  0  0  0  0  0  0  0  0
   -0.5687   -2.8017   37.4826 H   0  0  0  0  0  0  0  0  0  0  0  0
   -2.2546   -3.2637   37.1436 H   0  0  0  0  0  0  0  0  0  0  0  0
   -1.7291   -1.5919   36.8745 H   0  0  0  0  0  0  0  0  0  0  0  0
   -1.8580   -2.7946   34.6304 H   0  0  0  0  0  0  0  0  0  0  0  0
    0.3304   -4.9472   35.1279 H   0  0  0  0  0  0  0  0  0  0  0  0
   -1.5455   -1.8448   32.3500 H   0  0  0  0  0  0  0  0  0  0  0  0
    1.2417    0.9911   32.5566 H   0  0  0  0  0  0  0  0  0  0  0  0
    2.1585    1.0083   31.0612 H   0  0  0  0  0  0  0  0  0  0  0  0
   -0.7753    1.5907   30.9687 H   0  0  0  0  0  0  0  0  0  0  0  0
    0.2202    2.7950   31.7245 H   0  0  0  0  0  0  0  0  0  0  0  0
    1.3992    3.3671   29.7959 H   0  0  0  0  0  0  0  0  0  0  0  0
   -0.3023    3.4173   29.4263 H   0  0  0  0  0  0  0  0  0  0  0  0
    1.7895    1.4903   28.4154 H   0  0  0  0  0  0  0  0  0  0  0  0
    0.8490    2.6394   27.5341 H   0  0  0  0  0  0  0  0  0  0  0  0
    0.1260    0.3990   27.0565 H   0  0  0  0  0  0  0  0  0  0  0  0
   -1.1793    1.3697   27.6975 H   0  0  0  0  0  0  0  0  0  0  0  0
   -1.2366    0.1899   29.7262 H   0  0  0  0  0  0  0  0  0  0  0  0
   -0.7661   -1.8135   27.5507 H   0  0  0  0  0  0  0  0  0  0  0  0
   -2.2327   -0.9135   27.8197 H   0  0  0  0  0  0  0  0  0  0  0  0
   -2.2648   -1.8361   30.0839 H   0  0  0  0  0  0  0  0  0  0  0  0
   -1.4938   -4.0667   30.2622 H   0  0  0  0  0  0  0  0  0  0  0  0
   -0.2244   -2.9766   30.4427 H   0  0  0  0  0  0  0  0  0  0  0  0
    0.3669   -4.9115   29.0598 H   0  0  0  0  0  0  0  0  0  0  0  0
   -0.7679   -4.3417   27.8447 H   0  0  0  0  0  0  0  0  0  0  0  0
    0.6879   -3.4084   28.2288 H   0  0  0  0  0  0  0  0  0  0  0  0
    0.9427   -1.8038   29.4385 H   0  0  0  0  0  0  0  0  0  0  0  0
    1.6186   -0.2839   29.3125 H   0  0  0  0  0  0  0  0  0  0  0  0
    2.4668   -2.2054   33.0005 H   0  0  0  0  0  0  0  0  0  0  0  0
    2.6890   -3.8463   33.5632 H   0  0  0  0  0  0  0  0  0  0  0  0
    3.5663   -3.6310   31.3181 H   0  0  0  0  0  0  0  0  0  0  0  0
    2.0259   -3.0791   30.7001 H   0  0  0  0  0  0  0  0  0  0  0  0
    2.2595   -5.4957   30.2625 H   0  0  0  0  0  0  0  0  0  0  0  0
    2.6323   -5.7399   31.9939 H   0  0  0  0  0  0  0  0  0  0  0  0
   -1.5955   -5.1829   33.8609 H   0  0  0  0  0  0  0  0  0  0  0  0
  1  2  1  0
  2  3  2  3
  3  4  1  0
  4  5  1  0
  5  6  2  0
  5  7  2  0
  7  8  1  0
  8  9  1  0
  9 10  1  0
 10 11  1  0
 11 12  1  0
 12 13  1  0
 13 14  1  0
 14 15  1  0
 15 16  1  0
 16 17  1  0
 13 18  1  0
  4 19  1  0
 19 20  1  0
 20 21  1  0
 21 22  1  0
 22 23  2  0
 23 24  1  0
 24 25  2  0
 25 26  1  0
 26  4  1  0
 18  7  1  0
 26 22  1  0
  1 27  1  0
  1 28  1  0
  1 29  1  0
  2 30  1  0
  3 31  1  0
  5 32  1  0
  8 33  1  0
  8 34  1  0
  9 35  1  0
  9 36  1  0
 10 37  1  0
 10 38  1  0
 11 39  1  0
 11 40  1  0
 12 41  1  0
 12 42  1  0
 13 43  1  0
 14 44  1  0
 14 45  1  0
 15 46  1  0
 16 47  1  0
 16 48  1  0
 17 49  1  0
 17 50  1  0
 17 51  1  0
 18 52  1  0
 18 53  1  0
 19 54  1  0
 19 55  1  0
 20 56  1  0
 20 57  1  0
 21 58  1  0
 21 59  1  0
 25 60  1  0
M  END
>  <Energy>  (81) 
113.89602423292671

>  <compound_id>  (81) 
2378

>  <target_id>  (81) 
1

>  <reference_id>  (81) 
147

>  <inspiration_ids>  (81) 
[164, 147]

>  <energy_score>  (81) 
-212.18228465065283

>  <distance_score>  (81) 
2.8825258820867417

>  <path>  (81) 
/opt/xchem-fragalysis-2/maxwin/BulkDock/SCRATCH/505736/C2378-P147/C2378-P147.minimised.mol

>  <scratch_subdir>  (81) 
/opt/xchem-fragalysis-2/maxwin/BulkDock/SCRATCH/505736/C2378-P147

>  <fragmenstein_runtime>  (81) 
5.584151744842529

>  <fragmenstein_outcome>  (81) 
too moved

>  <fragmenstein_mode>  (81) 
expansion

>  <fragmenstein_error>  (81) 


$$$$
C2380-P164
     RDKit          3D

 49 53  0  0  0  0  0  0  0  0999 V2000
    2.6704   -3.0570   28.9953 C   0  0  0  0  0  0  0  0  0  0  0  0
    3.5126   -3.9196   29.5813 C   0  0  0  0  0  0  0  0  0  0  0  0
    3.7305   -4.1435   31.0522 C   0  0  0  0  0  0  0  0  0  0  0  0
    3.0241   -3.2304   31.9326 N   0  0  0  0  0  0  0  0  0  0  0  0
    3.5391   -2.0647   32.4739 C   0  0  0  0  0  0  0  0  0  0  0  0
    4.8584   -1.4993   32.2496 C   0  0  0  0  0  0  0  0  0  0  0  0
    5.7075   -1.2418   33.3294 C   0  0  0  0  0  0  0  0  0  0  0  0
    6.9752   -0.7079   33.1066 C   0  0  0  0  0  0  0  0  0  0  0  0
    7.3555   -0.4429   31.8019 C   0  0  0  0  0  0  0  0  0  0  0  0
    6.5615   -0.6639   30.7323 N   0  0  0  0  0  0  0  0  0  0  0  0
    5.3272   -1.1641   30.9840 C   0  0  0  0  0  0  0  0  0  0  0  0
    2.6591   -1.5744   33.3225 N   0  0  0  0  0  0  0  0  0  0  0  0
    1.5839   -2.4078   33.3587 N   0  0  0  0  0  0  0  0  0  0  0  0
    1.8126   -3.4323   32.5604 C   0  0  0  0  0  0  0  0  0  0  0  0
    1.0922   -4.6618   32.5644 C   0  0  0  0  0  0  0  0  0  0  0  0
    0.7705   -5.2482   33.8682 C   0  0  0  0  0  0  0  0  0  0  0  0
   -0.0168   -6.3289   33.9958 C   0  0  0  0  0  0  0  0  0  0  0  0
   -0.4389   -7.0184   35.5378 S   0  0  0  0  0  0  0  0  0  0  0  0
    0.6194   -6.1322   36.7301 C   0  0  0  0  0  0  0  0  0  0  0  0
    0.3743   -6.5403   38.1560 C   0  0  0  0  0  0  0  0  0  0  0  0
    0.7525   -7.7989   38.6301 C   0  0  0  0  0  0  0  0  0  0  0  0
    0.5007   -8.1184   39.9555 C   0  0  0  0  0  0  0  0  0  0  0  0
   -0.0727   -7.2676   40.8330 N   0  0  0  0  0  0  0  0  0  0  0  0
   -0.4247   -6.0538   40.3623 C   0  0  0  0  0  0  0  0  0  0  0  0
   -0.2282   -5.6506   39.0515 C   0  0  0  0  0  0  0  0  0  0  0  0
   -0.5034   -6.8925   32.8071 N   0  0  0  0  0  0  0  0  0  0  0  0
   -1.3442   -7.9444   32.5638 C   0  0  0  0  0  0  0  0  0  0  0  0
   -1.4588   -8.1557   31.2726 N   0  0  0  0  0  0  0  0  0  0  0  0
   -0.7056   -7.2060   30.6268 N   0  0  0  0  0  0  0  0  0  0  0  0
   -0.1735   -6.4204   31.5392 C   0  0  0  0  0  0  0  0  0  0  0  0
    0.6177   -5.2378   31.4389 C   0  0  0  0  0  0  0  0  0  0  0  0
    2.6234   -2.9820   27.9134 H   0  0  0  0  0  0  0  0  0  0  0  0
    2.0092   -2.3941   29.5480 H   0  0  0  0  0  0  0  0  0  0  0  0
    4.1352   -4.5335   28.9304 H   0  0  0  0  0  0  0  0  0  0  0  0
    3.4270   -5.1602   31.3097 H   0  0  0  0  0  0  0  0  0  0  0  0
    4.7995   -4.0755   31.2808 H   0  0  0  0  0  0  0  0  0  0  0  0
    5.3810   -1.4479   34.3468 H   0  0  0  0  0  0  0  0  0  0  0  0
    7.6460   -0.4978   33.9325 H   0  0  0  0  0  0  0  0  0  0  0  0
    8.3335   -0.0264   31.5765 H   0  0  0  0  0  0  0  0  0  0  0  0
    4.7080   -1.2754   30.0993 H   0  0  0  0  0  0  0  0  0  0  0  0
    1.1857   -4.7062   34.7114 H   0  0  0  0  0  0  0  0  0  0  0  0
    0.4283   -5.0573   36.6448 H   0  0  0  0  0  0  0  0  0  0  0  0
    1.6743   -6.3058   36.4884 H   0  0  0  0  0  0  0  0  0  0  0  0
    1.2181   -8.5359   37.9870 H   0  0  0  0  0  0  0  0  0  0  0  0
    0.7546   -9.0992   40.3516 H   0  0  0  0  0  0  0  0  0  0  0  0
   -0.8983   -5.3953   41.0851 H   0  0  0  0  0  0  0  0  0  0  0  0
   -0.5539   -4.6617   38.7444 H   0  0  0  0  0  0  0  0  0  0  0  0
   -1.8362   -8.5030   33.3438 H   0  0  0  0  0  0  0  0  0  0  0  0
    0.7639   -4.8156   30.4508 H   0  0  0  0  0  0  0  0  0  0  0  0
  1  2  2  0
  2  3  1  0
  3  4  1  0
  4  5  1  0
  5  6  1  0
  6  7  2  0
  7  8  1  0
  8  9  2  0
  9 10  1  0
 10 11  2  0
  5 12  2  0
 12 13  1  0
 13 14  2  0
 14 15  1  0
 15 16  1  0
 16 17  2  0
 17 18  1  0
 18 19  1  0
 19 20  1  0
 20 21  2  0
 21 22  1  0
 22 23  2  0
 23 24  1  0
 24 25  2  0
 17 26  1  0
 26 27  1  0
 27 28  2  0
 28 29  1  0
 29 30  2  0
 30 31  1  0
 14  4  1  0
 31 15  2  0
 11  6  1  0
 25 20  1  0
 30 26  1  0
  1 32  1  0
  1 33  1  0
  2 34  1  0
  3 35  1  0
  3 36  1  0
  7 37  1  0
  8 38  1  0
  9 39  1  0
 11 40  1  0
 16 41  1  0
 19 42  1  0
 19 43  1  0
 21 44  1  0
 22 45  1  0
 24 46  1  0
 25 47  1  0
 27 48  1  0
 31 49  1  0
M  END
>  <Energy>  (82) 
98.638797817147619

>  <compound_id>  (82) 
2380

>  <target_id>  (82) 
1

>  <reference_id>  (82) 
164

>  <inspiration_ids>  (82) 
[164, 156]

>  <energy_score>  (82) 
-30.519322293878034

>  <distance_score>  (82) 
0.677887484129243

>  <path>  (82) 
/opt/xchem-fragalysis-2/maxwin/BulkDock/SCRATCH/505736/C2380-P164/C2380-P164.minimised.mol

>  <scratch_subdir>  (82) 
/opt/xchem-fragalysis-2/maxwin/BulkDock/SCRATCH/505736/C2380-P164

>  <fragmenstein_runtime>  (82) 
2.398320436477661

>  <fragmenstein_outcome>  (82) 
acceptable

>  <fragmenstein_mode>  (82) 
expansion

>  <fragmenstein_error>  (82) 


$$$$
C2380-P156
     RDKit          3D

 49 53  0  0  0  0  0  0  0  0999 V2000
    1.9604   -2.4954   29.1097 C   0  0  0  0  0  0  0  0  0  0  0  0
    2.9062   -3.4246   29.3142 C   0  0  0  0  0  0  0  0  0  0  0  0
    3.4621   -3.8935   30.6336 C   0  0  0  0  0  0  0  0  0  0  0  0
    2.9570   -3.1781   31.7921 N   0  0  0  0  0  0  0  0  0  0  0  0
    3.5588   -2.0823   32.3904 C   0  0  0  0  0  0  0  0  0  0  0  0
    4.8146   -1.4561   32.0176 C   0  0  0  0  0  0  0  0  0  0  0  0
    5.8582   -1.3639   32.9423 C   0  0  0  0  0  0  0  0  0  0  0  0
    7.0638   -0.7701   32.5739 C   0  0  0  0  0  0  0  0  0  0  0  0
    7.1873   -0.2810   31.2843 C   0  0  0  0  0  0  0  0  0  0  0  0
    6.1999   -0.3383   30.3651 N   0  0  0  0  0  0  0  0  0  0  0  0
    5.0327   -0.9024   30.7605 C   0  0  0  0  0  0  0  0  0  0  0  0
    2.8341   -1.7200   33.4279 N   0  0  0  0  0  0  0  0  0  0  0  0
    1.7800   -2.5709   33.5308 N   0  0  0  0  0  0  0  0  0  0  0  0
    1.8731   -3.4890   32.5859 C   0  0  0  0  0  0  0  0  0  0  0  0
    1.1296   -4.7073   32.5607 C   0  0  0  0  0  0  0  0  0  0  0  0
    0.8413   -5.3271   33.8593 C   0  0  0  0  0  0  0  0  0  0  0  0
    0.0241   -6.3840   33.9913 C   0  0  0  0  0  0  0  0  0  0  0  0
   -0.3746   -7.0858   35.5340 S   0  0  0  0  0  0  0  0  0  0  0  0
    0.6280   -6.1395   36.7299 C   0  0  0  0  0  0  0  0  0  0  0  0
    0.3798   -6.5322   38.1593 C   0  0  0  0  0  0  0  0  0  0  0  0
    0.7659   -7.7819   38.6500 C   0  0  0  0  0  0  0  0  0  0  0  0
    0.5159   -8.0860   39.9792 C   0  0  0  0  0  0  0  0  0  0  0  0
   -0.0622   -7.2274   40.8459 N   0  0  0  0  0  0  0  0  0  0  0  0
   -0.4186   -6.0208   40.3602 C   0  0  0  0  0  0  0  0  0  0  0  0
   -0.2246   -5.6333   39.0442 C   0  0  0  0  0  0  0  0  0  0  0  0
   -0.5050   -6.9155   32.8071 N   0  0  0  0  0  0  0  0  0  0  0  0
   -1.3538   -7.9610   32.5663 C   0  0  0  0  0  0  0  0  0  0  0  0
   -1.5011   -8.1486   31.2746 N   0  0  0  0  0  0  0  0  0  0  0  0
   -0.7708   -7.1823   30.6272 N   0  0  0  0  0  0  0  0  0  0  0  0
   -0.2067   -6.4201   31.5407 C   0  0  0  0  0  0  0  0  0  0  0  0
    0.5959   -5.2442   31.4422 C   0  0  0  0  0  0  0  0  0  0  0  0
    1.6403   -2.2324   28.1057 H   0  0  0  0  0  0  0  0  0  0  0  0
    1.4646   -1.9568   29.9133 H   0  0  0  0  0  0  0  0  0  0  0  0
    3.3406   -3.9032   28.4370 H   0  0  0  0  0  0  0  0  0  0  0  0
    3.2496   -4.9575   30.7662 H   0  0  0  0  0  0  0  0  0  0  0  0
    4.5534   -3.8019   30.6259 H   0  0  0  0  0  0  0  0  0  0  0  0
    5.7323   -1.7454   33.9535 H   0  0  0  0  0  0  0  0  0  0  0  0
    7.8835   -0.6855   33.2789 H   0  0  0  0  0  0  0  0  0  0  0  0
    8.1072    0.1906   30.9493 H   0  0  0  0  0  0  0  0  0  0  0  0
    4.2531   -0.8801   30.0050 H   0  0  0  0  0  0  0  0  0  0  0  0
    1.3065   -4.8247   34.7011 H   0  0  0  0  0  0  0  0  0  0  0  0
    0.3965   -5.0746   36.6187 H   0  0  0  0  0  0  0  0  0  0  0  0
    1.6929   -6.2782   36.5099 H   0  0  0  0  0  0  0  0  0  0  0  0
    1.2379   -8.5235   38.0166 H   0  0  0  0  0  0  0  0  0  0  0  0
    0.7767   -9.0598   40.3879 H   0  0  0  0  0  0  0  0  0  0  0  0
   -0.8935   -5.3547   41.0752 H   0  0  0  0  0  0  0  0  0  0  0  0
   -0.5528   -4.6490   38.7255 H   0  0  0  0  0  0  0  0  0  0  0  0
   -1.8224   -8.5366   33.3487 H   0  0  0  0  0  0  0  0  0  0  0  0
    0.6981   -4.8010   30.4591 H   0  0  0  0  0  0  0  0  0  0  0  0
  1  2  2  0
  2  3  1  0
  3  4  1  0
  4  5  1  0
  5  6  1  0
  6  7  2  0
  7  8  1  0
  8  9  2  0
  9 10  1  0
 10 11  2  0
  5 12  2  0
 12 13  1  0
 13 14  2  0
 14 15  1  0
 15 16  1  0
 16 17  2  0
 17 18  1  0
 18 19  1  0
 19 20  1  0
 20 21  2  0
 21 22  1  0
 22 23  2  0
 23 24  1  0
 24 25  2  0
 17 26  1  0
 26 27  1  0
 27 28  2  0
 28 29  1  0
 29 30  2  0
 30 31  1  0
 14  4  1  0
 31 15  2  0
 11  6  1  0
 25 20  1  0
 30 26  1  0
  1 32  1  0
  1 33  1  0
  2 34  1  0
  3 35  1  0
  3 36  1  0
  7 37  1  0
  8 38  1  0
  9 39  1  0
 11 40  1  0
 16 41  1  0
 19 42  1  0
 19 43  1  0
 21 44  1  0
 22 45  1  0
 24 46  1  0
 25 47  1  0
 27 48  1  0
 31 49  1  0
M  END
>  <Energy>  (83) 
99.541521024387478

>  <compound_id>  (83) 
2380

>  <target_id>  (83) 
1

>  <reference_id>  (83) 
156

>  <inspiration_ids>  (83) 
[164, 156]

>  <energy_score>  (83) 
-29.616599086638132

>  <distance_score>  (83) 
0.6807157968416133

>  <path>  (83) 
/opt/xchem-fragalysis-2/maxwin/BulkDock/SCRATCH/505736/C2380-P156/C2380-P156.minimised.mol

>  <scratch_subdir>  (83) 
/opt/xchem-fragalysis-2/maxwin/BulkDock/SCRATCH/505736/C2380-P156

>  <fragmenstein_runtime>  (83) 
2.141996383666992

>  <fragmenstein_outcome>  (83) 
acceptable

>  <fragmenstein_mode>  (83) 
expansion

>  <fragmenstein_error>  (83) 


$$$$
C2381-P164
     RDKit          3D

 36 39  0  0  0  0  0  0  0  0999 V2000
    1.6654   -5.4464   31.3165 C   0  0  0  0  0  0  0  0  0  0  0  0
    1.7837   -5.8343   32.7066 C   0  0  0  0  0  0  0  0  0  0  0  0
    0.7870   -6.5176   33.3029 C   0  0  0  0  0  0  0  0  0  0  0  0
    0.8462   -6.8885   34.9819 S   0  0  0  0  0  0  0  0  0  0  0  0
    0.4783   -5.2544   35.8289 C   0  0  0  0  0  0  0  0  0  0  0  0
    0.5773   -5.4623   37.3531 C   0  0  0  0  0  0  0  0  0  0  0  0
    1.4224   -6.4117   37.9625 C   0  0  0  0  0  0  0  0  0  0  0  0
    1.2596   -6.7219   39.3097 C   0  0  0  0  0  0  0  0  0  0  0  0
    0.3577   -6.1238   40.1092 N   0  0  0  0  0  0  0  0  0  0  0  0
   -0.4107   -5.1746   39.5379 C   0  0  0  0  0  0  0  0  0  0  0  0
   -0.3366   -4.8135   38.1948 C   0  0  0  0  0  0  0  0  0  0  0  0
    1.1612   -4.0483   35.1543 C   0  0  0  0  0  0  0  0  0  0  0  0
    2.5230   -3.7436   35.2716 C   0  0  0  0  0  0  0  0  0  0  0  0
    3.1032   -2.8549   34.3640 C   0  0  0  0  0  0  0  0  0  0  0  0
    2.4318   -2.2518   33.3629 N   0  0  0  0  0  0  0  0  0  0  0  0
    1.1037   -2.4711   33.3199 C   0  0  0  0  0  0  0  0  0  0  0  0
    0.4348   -3.3275   34.1853 C   0  0  0  0  0  0  0  0  0  0  0  0
   -0.2287   -7.0264   32.4864 N   0  0  0  0  0  0  0  0  0  0  0  0
   -1.2900   -7.8513   32.7394 C   0  0  0  0  0  0  0  0  0  0  0  0
   -1.8859   -8.1840   31.6169 N   0  0  0  0  0  0  0  0  0  0  0  0
   -1.2424   -7.5371   30.5929 N   0  0  0  0  0  0  0  0  0  0  0  0
   -0.2801   -6.8113   31.1171 C   0  0  0  0  0  0  0  0  0  0  0  0
    0.6614   -5.9104   30.5562 C   0  0  0  0  0  0  0  0  0  0  0  0
    2.3913   -4.7418   30.9184 H   0  0  0  0  0  0  0  0  0  0  0  0
    2.6721   -5.4979   33.2275 H   0  0  0  0  0  0  0  0  0  0  0  0
   -0.5992   -5.1411   35.6409 H   0  0  0  0  0  0  0  0  0  0  0  0
    2.1737   -6.9604   37.4047 H   0  0  0  0  0  0  0  0  0  0  0  0
    1.8686   -7.4851   39.7870 H   0  0  0  0  0  0  0  0  0  0  0  0
   -1.1371   -4.7075   40.1989 H   0  0  0  0  0  0  0  0  0  0  0  0
   -1.0321   -4.0727   37.8103 H   0  0  0  0  0  0  0  0  0  0  0  0
    3.1467   -4.2434   36.0067 H   0  0  0  0  0  0  0  0  0  0  0  0
    4.1641   -2.6241   34.4145 H   0  0  0  0  0  0  0  0  0  0  0  0
    0.5697   -1.9391   32.5367 H   0  0  0  0  0  0  0  0  0  0  0  0
   -0.6316   -3.4887   34.0429 H   0  0  0  0  0  0  0  0  0  0  0  0
   -1.5607   -8.1938   33.7268 H   0  0  0  0  0  0  0  0  0  0  0  0
    0.5516   -5.5913   29.5294 H   0  0  0  0  0  0  0  0  0  0  0  0
  1  2  1  0
  2  3  2  0
  3  4  1  0
  4  5  1  0
  5  6  1  0
  6  7  2  0
  7  8  1  0
  8  9  2  0
  9 10  1  0
 10 11  2  0
  5 12  1  0
 12 13  2  0
 13 14  1  0
 14 15  2  0
 15 16  1  0
 16 17  2  0
  3 18  1  0
 18 19  1  0
 19 20  2  0
 20 21  1  0
 21 22  2  0
 22 23  1  0
 23  1  2  0
 11  6  1  0
 17 12  1  0
 22 18  1  0
  1 24  1  0
  2 25  1  0
  5 26  1  0
  7 27  1  0
  8 28  1  0
 10 29  1  0
 11 30  1  0
 13 31  1  0
 14 32  1  0
 16 33  1  0
 17 34  1  0
 19 35  1  0
 23 36  1  0
M  END
>  <Energy>  (84) 
92.727341564734886

>  <compound_id>  (84) 
2381

>  <target_id>  (84) 
1

>  <reference_id>  (84) 
164

>  <inspiration_ids>  (84) 
[164, 157]

>  <energy_score>  (84) 
-13.331943219381799

>  <distance_score>  (84) 
1.4652523562664987

>  <path>  (84) 
/opt/xchem-fragalysis-2/maxwin/BulkDock/SCRATCH/505736/C2381-P164/C2381-P164.minimised.mol

>  <scratch_subdir>  (84) 
/opt/xchem-fragalysis-2/maxwin/BulkDock/SCRATCH/505736/C2381-P164

>  <fragmenstein_runtime>  (84) 
4.869474172592163

>  <fragmenstein_outcome>  (84) 
too moved

>  <fragmenstein_mode>  (84) 
expansion

>  <fragmenstein_error>  (84) 


$$$$
C2381-P157
     RDKit          3D

 36 39  0  0  0  0  0  0  0  0999 V2000
    1.5199   -5.3257   31.2159 C   0  0  0  0  0  0  0  0  0  0  0  0
    1.7073   -5.7295   32.5941 C   0  0  0  0  0  0  0  0  0  0  0  0
    0.7647   -6.4627   33.2190 C   0  0  0  0  0  0  0  0  0  0  0  0
    0.9205   -6.8693   34.8851 S   0  0  0  0  0  0  0  0  0  0  0  0
    0.5030   -5.2805   35.7863 C   0  0  0  0  0  0  0  0  0  0  0  0
    0.5909   -5.5122   37.3101 C   0  0  0  0  0  0  0  0  0  0  0  0
    1.3401   -6.5457   37.9092 C   0  0  0  0  0  0  0  0  0  0  0  0
    1.1684   -6.8396   39.2588 C   0  0  0  0  0  0  0  0  0  0  0  0
    0.3438   -6.1566   40.0732 N   0  0  0  0  0  0  0  0  0  0  0  0
   -0.3355   -5.1359   39.5100 C   0  0  0  0  0  0  0  0  0  0  0  0
   -0.2443   -4.7803   38.1652 C   0  0  0  0  0  0  0  0  0  0  0  0
    1.1742   -4.0464   35.1487 C   0  0  0  0  0  0  0  0  0  0  0  0
    2.5412   -3.7572   35.2498 C   0  0  0  0  0  0  0  0  0  0  0  0
    3.1115   -2.8429   34.3625 C   0  0  0  0  0  0  0  0  0  0  0  0
    2.4253   -2.2002   33.3970 N   0  0  0  0  0  0  0  0  0  0  0  0
    1.0944   -2.4081   33.3725 C   0  0  0  0  0  0  0  0  0  0  0  0
    0.4341   -3.2879   34.2209 C   0  0  0  0  0  0  0  0  0  0  0  0
   -0.2645   -6.9963   32.4348 N   0  0  0  0  0  0  0  0  0  0  0  0
   -1.2802   -7.8691   32.7111 C   0  0  0  0  0  0  0  0  0  0  0  0
   -1.9119   -8.1945   31.6056 N   0  0  0  0  0  0  0  0  0  0  0  0
   -1.3447   -7.4946   30.5729 N   0  0  0  0  0  0  0  0  0  0  0  0
   -0.3834   -6.7530   31.0739 C   0  0  0  0  0  0  0  0  0  0  0  0
    0.5008   -5.8112   30.4901 C   0  0  0  0  0  0  0  0  0  0  0  0
    2.2053   -4.5924   30.7987 H   0  0  0  0  0  0  0  0  0  0  0  0
    2.6049   -5.3698   33.0819 H   0  0  0  0  0  0  0  0  0  0  0  0
   -0.5756   -5.1837   35.5946 H   0  0  0  0  0  0  0  0  0  0  0  0
    2.0224   -7.1719   37.3447 H   0  0  0  0  0  0  0  0  0  0  0  0
    1.7056   -7.6615   39.7235 H   0  0  0  0  0  0  0  0  0  0  0  0
   -1.0026   -4.5994   40.1806 H   0  0  0  0  0  0  0  0  0  0  0  0
   -0.8666   -3.9727   37.7897 H   0  0  0  0  0  0  0  0  0  0  0  0
    3.1743   -4.2909   35.9523 H   0  0  0  0  0  0  0  0  0  0  0  0
    4.1754   -2.6239   34.3983 H   0  0  0  0  0  0  0  0  0  0  0  0
    0.5500   -1.8468   32.6173 H   0  0  0  0  0  0  0  0  0  0  0  0
   -0.6354   -3.4390   34.0913 H   0  0  0  0  0  0  0  0  0  0  0  0
   -1.4943   -8.2475   33.6999 H   0  0  0  0  0  0  0  0  0  0  0  0
    0.3300   -5.4845   29.4730 H   0  0  0  0  0  0  0  0  0  0  0  0
  1  2  1  0
  2  3  2  0
  3  4  1  0
  4  5  1  0
  5  6  1  0
  6  7  2  0
  7  8  1  0
  8  9  2  0
  9 10  1  0
 10 11  2  0
  5 12  1  0
 12 13  2  0
 13 14  1  0
 14 15  2  0
 15 16  1  0
 16 17  2  0
  3 18  1  0
 18 19  1  0
 19 20  2  0
 20 21  1  0
 21 22  2  0
 22 23  1  0
 23  1  2  0
 11  6  1  0
 17 12  1  0
 22 18  1  0
  1 24  1  0
  2 25  1  0
  5 26  1  0
  7 27  1  0
  8 28  1  0
 10 29  1  0
 11 30  1  0
 13 31  1  0
 14 32  1  0
 16 33  1  0
 17 34  1  0
 19 35  1  0
 23 36  1  0
M  END
>  <Energy>  (85) 
92.230419785103095

>  <compound_id>  (85) 
2381

>  <target_id>  (85) 
1

>  <reference_id>  (85) 
157

>  <inspiration_ids>  (85) 
[164, 157]

>  <energy_score>  (85) 
-13.828864999014712

>  <distance_score>  (85) 
1.4719023726432654

>  <path>  (85) 
/opt/xchem-fragalysis-2/maxwin/BulkDock/SCRATCH/505736/C2381-P157/C2381-P157.minimised.mol

>  <scratch_subdir>  (85) 
/opt/xchem-fragalysis-2/maxwin/BulkDock/SCRATCH/505736/C2381-P157

>  <fragmenstein_runtime>  (85) 
4.913862943649292

>  <fragmenstein_outcome>  (85) 
too moved

>  <fragmenstein_mode>  (85) 
expansion

>  <fragmenstein_error>  (85) 


$$$$
C2383-P164
     RDKit          3D

 42 45  0  0  0  0  0  0  0  0999 V2000
   -0.2332   -3.2104   32.8293 O   0  0  0  0  0  0  0  0  0  0  0  0
    1.1598   -3.1866   32.5639 C   0  0  0  0  0  0  0  0  0  0  0  0
    1.9597   -4.7178   33.3496 S   0  0  0  0  0  0  0  0  0  0  0  0
    0.6162   -5.7264   33.7722 C   0  0  0  0  0  0  0  0  0  0  0  0
    0.2809   -5.8318   35.0750 C   0  0  0  0  0  0  0  0  0  0  0  0
   -0.7683   -6.7456   35.4835 C   0  0  0  0  0  0  0  0  0  0  0  0
   -1.4260   -7.4980   34.5855 C   0  0  0  0  0  0  0  0  0  0  0  0
   -1.0978   -7.4001   33.2081 C   0  0  0  0  0  0  0  0  0  0  0  0
   -1.5716   -8.0118   32.1428 N   0  0  0  0  0  0  0  0  0  0  0  0
   -0.8533   -7.5792   31.0572 N   0  0  0  0  0  0  0  0  0  0  0  0
    0.0472   -6.7235   31.4921 C   0  0  0  0  0  0  0  0  0  0  0  0
   -0.0773   -6.5264   32.8441 N   0  0  0  0  0  0  0  0  0  0  0  0
    1.3732   -3.3888   31.0688 C   0  0  0  0  0  0  0  0  0  0  0  0
    2.6643   -3.5191   30.5230 C   0  0  0  0  0  0  0  0  0  0  0  0
    2.7998   -3.8204   29.1832 C   0  0  0  0  0  0  0  0  0  0  0  0
    1.7537   -4.0010   28.3591 N   0  0  0  0  0  0  0  0  0  0  0  0
    0.5225   -3.8185   28.8901 C   0  0  0  0  0  0  0  0  0  0  0  0
    0.2825   -3.5092   30.2059 C   0  0  0  0  0  0  0  0  0  0  0  0
    1.8159   -1.9817   33.1118 N   0  0  0  0  0  0  0  0  0  0  0  0
    1.1580   -1.4997   34.3477 C   0  0  0  0  0  0  0  0  0  0  0  0
    0.0034   -0.4853   34.1024 C   0  0  0  0  0  0  0  0  0  0  0  0
   -0.4760   -0.4541   32.7066 N   0  0  0  0  0  0  0  0  0  0  0  0
    0.6367   -0.1120   31.8042 C   0  0  0  0  0  0  0  0  0  0  0  0
    1.9529   -0.8078   32.2004 C   0  0  0  0  0  0  0  0  0  0  0  0
   -0.5151   -2.2903   32.6455 H   0  0  0  0  0  0  0  0  0  0  0  0
    0.7857   -5.2696   35.8557 H   0  0  0  0  0  0  0  0  0  0  0  0
   -0.9911   -6.8111   36.5437 H   0  0  0  0  0  0  0  0  0  0  0  0
   -2.1954   -8.1981   34.8850 H   0  0  0  0  0  0  0  0  0  0  0  0
    0.7973   -6.2405   30.8864 H   0  0  0  0  0  0  0  0  0  0  0  0
    3.5508   -3.4072   31.1413 H   0  0  0  0  0  0  0  0  0  0  0  0
    3.7791   -3.9356   28.7285 H   0  0  0  0  0  0  0  0  0  0  0  0
   -0.3168   -3.9100   28.2070 H   0  0  0  0  0  0  0  0  0  0  0  0
   -0.7449   -3.3973   30.5355 H   0  0  0  0  0  0  0  0  0  0  0  0
    1.9203   -1.0000   34.9598 H   0  0  0  0  0  0  0  0  0  0  0  0
    0.8033   -2.3343   34.9653 H   0  0  0  0  0  0  0  0  0  0  0  0
   -0.8392   -0.7434   34.7534 H   0  0  0  0  0  0  0  0  0  0  0  0
    0.3329    0.5209   34.3908 H   0  0  0  0  0  0  0  0  0  0  0  0
   -1.2056    0.2526   32.6085 H   0  0  0  0  0  0  0  0  0  0  0  0
    0.7864    0.9741   31.7933 H   0  0  0  0  0  0  0  0  0  0  0  0
    0.3481   -0.4112   30.7912 H   0  0  0  0  0  0  0  0  0  0  0  0
    2.5423   -1.0369   31.3083 H   0  0  0  0  0  0  0  0  0  0  0  0
    2.5731   -0.0719   32.7330 H   0  0  0  0  0  0  0  0  0  0  0  0
  1  2  1  0
  2  3  1  0
  3  4  1  0
  4  5  2  0
  5  6  1  0
  6  7  2  0
  7  8  1  0
  8  9  2  0
  9 10  1  0
 10 11  2  0
 11 12  1  0
  2 13  1  0
 13 14  2  0
 14 15  1  0
 15 16  2  0
 16 17  1  0
 17 18  2  0
  2 19  1  0
 19 20  1  0
 20 21  1  0
 21 22  1  0
 22 23  1  0
 23 24  1  0
 12  4  1  0
 18 13  1  0
 24 19  1  0
 12  8  1  0
  1 25  1  0
  5 26  1  0
  6 27  1  0
  7 28  1  0
 11 29  1  0
 14 30  1  0
 15 31  1  0
 17 32  1  0
 18 33  1  0
 20 34  1  0
 20 35  1  0
 21 36  1  0
 21 37  1  0
 22 38  1  0
 23 39  1  0
 23 40  1  0
 24 41  1  0
 24 42  1  0
M  END
>  <Energy>  (86) 
53.051048765126481

>  <compound_id>  (86) 
2383

>  <target_id>  (86) 
1

>  <reference_id>  (86) 
164

>  <inspiration_ids>  (86) 
[164, 163]

>  <energy_score>  (86) 
-40.33673104788568

>  <distance_score>  (86) 
1.7066958573302564

>  <path>  (86) 
/opt/xchem-fragalysis-2/maxwin/BulkDock/SCRATCH/505736/C2383-P164/C2383-P164.minimised.mol

>  <scratch_subdir>  (86) 
/opt/xchem-fragalysis-2/maxwin/BulkDock/SCRATCH/505736/C2383-P164

>  <fragmenstein_runtime>  (86) 
16.591946363449097

>  <fragmenstein_outcome>  (86) 
too moved

>  <fragmenstein_mode>  (86) 
expansion

>  <fragmenstein_error>  (86) 


$$$$
C2383-P163
     RDKit          3D

 42 45  0  0  0  0  0  0  0  0999 V2000
   -0.2167   -3.2001   32.7523 O   0  0  0  0  0  0  0  0  0  0  0  0
    1.1728   -3.1747   32.4707 C   0  0  0  0  0  0  0  0  0  0  0  0
    1.9871   -4.7049   33.2447 S   0  0  0  0  0  0  0  0  0  0  0  0
    0.6476   -5.7008   33.7034 C   0  0  0  0  0  0  0  0  0  0  0  0
    0.3356   -5.7927   35.0129 C   0  0  0  0  0  0  0  0  0  0  0  0
   -0.7145   -6.6933   35.4467 C   0  0  0  0  0  0  0  0  0  0  0  0
   -1.3912   -7.4478   34.5651 C   0  0  0  0  0  0  0  0  0  0  0  0
   -1.0830   -7.3683   33.1816 C   0  0  0  0  0  0  0  0  0  0  0  0
   -1.5709   -7.9932   32.1301 N   0  0  0  0  0  0  0  0  0  0  0  0
   -0.8718   -7.5705   31.0282 N   0  0  0  0  0  0  0  0  0  0  0  0
    0.0322   -6.7075   31.4401 C   0  0  0  0  0  0  0  0  0  0  0  0
   -0.0669   -6.5019   32.7932 N   0  0  0  0  0  0  0  0  0  0  0  0
    1.3686   -3.3729   30.9710 C   0  0  0  0  0  0  0  0  0  0  0  0
    2.6537   -3.4890   30.4092 C   0  0  0  0  0  0  0  0  0  0  0  0
    2.7761   -3.7818   29.0651 C   0  0  0  0  0  0  0  0  0  0  0  0
    1.7235   -3.9676   28.2488 N   0  0  0  0  0  0  0  0  0  0  0  0
    0.4967   -3.8062   28.7952 C   0  0  0  0  0  0  0  0  0  0  0  0
    0.2698   -3.5057   30.1177 C   0  0  0  0  0  0  0  0  0  0  0  0
    1.8342   -1.9725   33.0169 N   0  0  0  0  0  0  0  0  0  0  0  0
    1.2042   -1.5084   34.2740 C   0  0  0  0  0  0  0  0  0  0  0  0
    0.0436   -0.4929   34.0695 C   0  0  0  0  0  0  0  0  0  0  0  0
   -0.4694   -0.4448   32.6863 N   0  0  0  0  0  0  0  0  0  0  0  0
    0.6203   -0.0922   31.7604 C   0  0  0  0  0  0  0  0  0  0  0  0
    1.9471   -0.7894   32.1157 C   0  0  0  0  0  0  0  0  0  0  0  0
   -0.4999   -2.2771   32.5869 H   0  0  0  0  0  0  0  0  0  0  0  0
    0.8586   -5.2281   35.7796 H   0  0  0  0  0  0  0  0  0  0  0  0
   -0.9218   -6.7476   36.5107 H   0  0  0  0  0  0  0  0  0  0  0  0
   -2.1603   -8.1396   34.8819 H   0  0  0  0  0  0  0  0  0  0  0  0
    0.7691   -6.2264   30.8170 H   0  0  0  0  0  0  0  0  0  0  0  0
    3.5467   -3.3714   31.0170 H   0  0  0  0  0  0  0  0  0  0  0  0
    3.7517   -3.8847   28.5992 H   0  0  0  0  0  0  0  0  0  0  0  0
   -0.3475   -3.9065   28.1187 H   0  0  0  0  0  0  0  0  0  0  0  0
   -0.7550   -3.4101   30.4613 H   0  0  0  0  0  0  0  0  0  0  0  0
    1.9798   -1.0163   34.8753 H   0  0  0  0  0  0  0  0  0  0  0  0
    0.8639   -2.3515   34.8880 H   0  0  0  0  0  0  0  0  0  0  0  0
   -0.7828   -0.7599   34.7375 H   0  0  0  0  0  0  0  0  0  0  0  0
    0.3793    0.5100   34.3623 H   0  0  0  0  0  0  0  0  0  0  0  0
   -1.2017    0.2625   32.6167 H   0  0  0  0  0  0  0  0  0  0  0  0
    0.7682    0.9941   31.7562 H   0  0  0  0  0  0  0  0  0  0  0  0
    0.3069   -0.3825   30.7521 H   0  0  0  0  0  0  0  0  0  0  0  0
    2.5135   -1.0081   31.2062 H   0  0  0  0  0  0  0  0  0  0  0  0
    2.5793   -0.0582   32.6405 H   0  0  0  0  0  0  0  0  0  0  0  0
  1  2  1  0
  2  3  1  0
  3  4  1  0
  4  5  2  0
  5  6  1  0
  6  7  2  0
  7  8  1  0
  8  9  2  0
  9 10  1  0
 10 11  2  0
 11 12  1  0
  2 13  1  0
 13 14  2  0
 14 15  1  0
 15 16  2  0
 16 17  1  0
 17 18  2  0
  2 19  1  0
 19 20  1  0
 20 21  1  0
 21 22  1  0
 22 23  1  0
 23 24  1  0
 12  4  1  0
 18 13  1  0
 24 19  1  0
 12  8  1  0
  1 25  1  0
  5 26  1  0
  6 27  1  0
  7 28  1  0
 11 29  1  0
 14 30  1  0
 15 31  1  0
 17 32  1  0
 18 33  1  0
 20 34  1  0
 20 35  1  0
 21 36  1  0
 21 37  1  0
 22 38  1  0
 23 39  1  0
 23 40  1  0
 24 41  1  0
 24 42  1  0
M  END
>  <Energy>  (87) 
52.462928342894159

>  <compound_id>  (87) 
2383

>  <target_id>  (87) 
1

>  <reference_id>  (87) 
163

>  <inspiration_ids>  (87) 
[164, 163]

>  <energy_score>  (87) 
-40.92485147011777

>  <distance_score>  (87) 
1.7151986520013853

>  <path>  (87) 
/opt/xchem-fragalysis-2/maxwin/BulkDock/SCRATCH/505736/C2383-P163/C2383-P163.minimised.mol

>  <scratch_subdir>  (87) 
/opt/xchem-fragalysis-2/maxwin/BulkDock/SCRATCH/505736/C2383-P163

>  <fragmenstein_runtime>  (87) 
16.335264205932617

>  <fragmenstein_outcome>  (87) 
too moved

>  <fragmenstein_mode>  (87) 
expansion

>  <fragmenstein_error>  (87) 


$$$$
C2385-P164
     RDKit          3D

 51 55  0  0  0  0  0  0  0  0999 V2000
    2.6142   -2.6806   29.6728 O   0  0  0  0  0  0  0  0  0  0  0  0
    1.5441   -3.2337   29.6252 C   0  0  0  0  0  0  0  0  0  0  0  0
    0.6063   -3.0198   28.4081 C   0  0  0  0  0  0  0  0  0  0  0  0
    1.5630   -3.1820   26.8680 S   0  0  0  0  0  0  0  0  0  0  0  0
   -0.0660   -1.3730   28.5405 Cl  0  0  0  0  0  0  0  0  0  0  0  0
    0.8731   -4.0529   30.5963 N   0  0  0  0  0  0  0  0  0  0  0  0
    1.2434   -5.5335   30.3806 C   0  0  0  0  0  0  0  0  0  0  0  0
    0.2972   -6.5549   30.9512 C   0  0  0  0  0  0  0  0  0  0  0  0
   -0.1123   -7.8330   30.4912 C   0  0  0  0  0  0  0  0  0  0  0  0
   -0.9484   -8.4633   31.3927 C   0  0  0  0  0  0  0  0  0  0  0  0
   -1.2099   -7.5432   32.7968 S   0  0  0  0  0  0  0  0  0  0  0  0
   -0.2388   -6.3280   32.1814 C   0  0  0  0  0  0  0  0  0  0  0  0
    0.0785   -5.0827   32.8579 C   0  0  0  0  0  0  0  0  0  0  0  0
    1.2415   -4.3916   32.0349 C   0  0  0  0  0  0  0  0  0  0  0  0
    1.4261   -3.0300   32.6014 N   0  0  0  0  0  0  0  0  0  0  0  0
    1.2302   -2.8334   33.9651 C   0  0  0  0  0  0  0  0  0  0  0  0
    2.1359   -3.2056   34.8940 C   0  0  0  0  0  0  0  0  0  0  0  0
    1.8123   -3.2528   36.3112 C   0  0  0  0  0  0  0  0  0  0  0  0
    0.5568   -2.9776   36.7200 C   0  0  0  0  0  0  0  0  0  0  0  0
    0.1344   -3.1073   38.3963 S   0  0  0  0  0  0  0  0  0  0  0  0
   -0.8106   -4.6598   38.4346 C   0  0  0  0  0  0  0  0  0  0  0  0
    0.0037   -5.8420   37.9999 C   0  0  0  0  0  0  0  0  0  0  0  0
    0.9417   -6.4306   38.8537 C   0  0  0  0  0  0  0  0  0  0  0  0
    1.7310   -7.4562   38.3633 C   0  0  0  0  0  0  0  0  0  0  0  0
    1.6604   -7.9061   37.0936 N   0  0  0  0  0  0  0  0  0  0  0  0
    0.7128   -7.3585   36.3080 C   0  0  0  0  0  0  0  0  0  0  0  0
   -0.1308   -6.3416   36.7057 C   0  0  0  0  0  0  0  0  0  0  0  0
   -0.3720   -2.5606   35.7589 N   0  0  0  0  0  0  0  0  0  0  0  0
   -1.6951   -2.2147   35.8339 C   0  0  0  0  0  0  0  0  0  0  0  0
   -2.1627   -1.9160   34.6423 N   0  0  0  0  0  0  0  0  0  0  0  0
   -1.1363   -2.0551   33.7436 N   0  0  0  0  0  0  0  0  0  0  0  0
   -0.0667   -2.4254   34.4171 C   0  0  0  0  0  0  0  0  0  0  0  0
   -0.2268   -3.7259   28.4100 H   0  0  0  0  0  0  0  0  0  0  0  0
    2.4693   -2.2496   27.2024 H   0  0  0  0  0  0  0  0  0  0  0  0
    2.3115   -5.7552   30.5380 H   0  0  0  0  0  0  0  0  0  0  0  0
    1.1699   -5.6558   29.2935 H   0  0  0  0  0  0  0  0  0  0  0  0
    0.2214   -8.3391   29.5964 H   0  0  0  0  0  0  0  0  0  0  0  0
   -1.3586   -9.4589   31.3196 H   0  0  0  0  0  0  0  0  0  0  0  0
   -0.8231   -4.4614   32.8602 H   0  0  0  0  0  0  0  0  0  0  0  0
    0.3904   -5.2830   33.8866 H   0  0  0  0  0  0  0  0  0  0  0  0
    2.2294   -4.8533   32.2000 H   0  0  0  0  0  0  0  0  0  0  0  0
    0.7673   -2.4234   32.1010 H   0  0  0  0  0  0  0  0  0  0  0  0
    3.1170   -3.5640   34.5953 H   0  0  0  0  0  0  0  0  0  0  0  0
    2.5930   -3.5695   36.9972 H   0  0  0  0  0  0  0  0  0  0  0  0
   -1.1707   -4.8207   39.4569 H   0  0  0  0  0  0  0  0  0  0  0  0
   -1.7016   -4.5507   37.8086 H   0  0  0  0  0  0  0  0  0  0  0  0
    1.0708   -6.0892   39.8759 H   0  0  0  0  0  0  0  0  0  0  0  0
    2.4683   -7.9483   38.9914 H   0  0  0  0  0  0  0  0  0  0  0  0
    0.6481   -7.7731   35.3085 H   0  0  0  0  0  0  0  0  0  0  0  0
   -0.8613   -5.9390   36.0114 H   0  0  0  0  0  0  0  0  0  0  0  0
   -2.2583   -2.1919   36.7545 H   0  0  0  0  0  0  0  0  0  0  0  0
  1  2  2  0
  2  3  1  0
  3  4  1  0
  3  5  1  0
  2  6  1  0
  6  7  1  0
  7  8  1  0
  8  9  1  0
  9 10  2  0
 10 11  1  0
 11 12  1  0
 12 13  1  0
 13 14  1  0
 14 15  1  0
 15 16  1  0
 16 17  2  0
 17 18  1  0
 18 19  2  0
 19 20  1  0
 20 21  1  0
 21 22  1  0
 22 23  2  0
 23 24  1  0
 24 25  2  0
 25 26  1  0
 26 27  2  0
 19 28  1  0
 28 29  1  0
 29 30  2  0
 30 31  1  0
 31 32  2  0
 14  6  1  0
 32 16  1  0
 12  8  2  0
 27 22  1  0
 32 28  1  0
  3 33  1  0
  4 34  1  0
  7 35  1  0
  7 36  1  0
  9 37  1  0
 10 38  1  0
 13 39  1  0
 13 40  1  0
 14 41  1  0
 15 42  1  0
 17 43  1  0
 18 44  1  0
 21 45  1  0
 21 46  1  0
 23 47  1  0
 24 48  1  0
 26 49  1  0
 27 50  1  0
 29 51  1  0
M  END
>  <Energy>  (88) 
150.98943152706519

>  <compound_id>  (88) 
2385

>  <target_id>  (88) 
1

>  <reference_id>  (88) 
164

>  <inspiration_ids>  (88) 
[164, 167]

>  <energy_score>  (88) 
7.754338103945543

>  <distance_score>  (88) 
5.652851210092461

>  <path>  (88) 
/opt/xchem-fragalysis-2/maxwin/BulkDock/SCRATCH/505736/C2385-P164/C2385-P164.minimised.mol

>  <scratch_subdir>  (88) 
/opt/xchem-fragalysis-2/maxwin/BulkDock/SCRATCH/505736/C2385-P164

>  <fragmenstein_runtime>  (88) 
8.585821866989136

>  <fragmenstein_outcome>  (88) 
too moved

>  <fragmenstein_mode>  (88) 
expansion

>  <fragmenstein_error>  (88) 


$$$$
C2385-P167
     RDKit          3D

 51 55  0  0  0  0  0  0  0  0999 V2000
    2.3497   -9.1732   35.0558 O   0  0  0  0  0  0  0  0  0  0  0  0
    2.1951   -8.2627   35.8310 C   0  0  0  0  0  0  0  0  0  0  0  0
    0.7628   -8.0430   36.4410 C   0  0  0  0  0  0  0  0  0  0  0  0
   -0.4973   -7.9686   35.1429 S   0  0  0  0  0  0  0  0  0  0  0  0
    0.6071   -6.5612   37.4057 Cl  0  0  0  0  0  0  0  0  0  0  0  0
    3.1324   -7.3268   36.3560 N   0  0  0  0  0  0  0  0  0  0  0  0
    3.7375   -7.8660   37.6758 C   0  0  0  0  0  0  0  0  0  0  0  0
    4.4836   -9.1590   37.6343 C   0  0  0  0  0  0  0  0  0  0  0  0
    4.4576  -10.2692   38.5242 C   0  0  0  0  0  0  0  0  0  0  0  0
    5.3288  -11.2630   38.1188 C   0  0  0  0  0  0  0  0  0  0  0  0
    6.1634  -10.8424   36.6756 S   0  0  0  0  0  0  0  0  0  0  0  0
    5.3574   -9.3674   36.6101 C   0  0  0  0  0  0  0  0  0  0  0  0
    5.4554   -8.3473   35.5569 C   0  0  0  0  0  0  0  0  0  0  0  0
    4.6080   -7.0972   36.0226 C   0  0  0  0  0  0  0  0  0  0  0  0
    4.5489   -6.2089   34.7974 N   0  0  0  0  0  0  0  0  0  0  0  0
    3.5445   -5.2404   34.6742 C   0  0  0  0  0  0  0  0  0  0  0  0
    3.5944   -4.1108   35.4121 C   0  0  0  0  0  0  0  0  0  0  0  0
    2.4181   -3.3016   35.6605 C   0  0  0  0  0  0  0  0  0  0  0  0
    1.2202   -3.6961   35.1875 C   0  0  0  0  0  0  0  0  0  0  0  0
   -0.2781   -2.9974   35.7088 S   0  0  0  0  0  0  0  0  0  0  0  0
    0.0454   -2.3046   37.3528 C   0  0  0  0  0  0  0  0  0  0  0  0
    0.2004   -3.2823   38.4926 C   0  0  0  0  0  0  0  0  0  0  0  0
    1.4558   -3.6086   39.0192 C   0  0  0  0  0  0  0  0  0  0  0  0
    1.5315   -4.4664   40.1100 C   0  0  0  0  0  0  0  0  0  0  0  0
    0.4572   -5.0059   40.7178 N   0  0  0  0  0  0  0  0  0  0  0  0
   -0.7437   -4.6846   40.1977 C   0  0  0  0  0  0  0  0  0  0  0  0
   -0.9225   -3.8438   39.1065 C   0  0  0  0  0  0  0  0  0  0  0  0
    1.2216   -4.7211   34.2235 N   0  0  0  0  0  0  0  0  0  0  0  0
    0.2565   -5.1740   33.3604 C   0  0  0  0  0  0  0  0  0  0  0  0
    0.7460   -6.0884   32.5532 N   0  0  0  0  0  0  0  0  0  0  0  0
    2.0568   -6.2924   32.9135 N   0  0  0  0  0  0  0  0  0  0  0  0
    2.3475   -5.4706   33.9041 C   0  0  0  0  0  0  0  0  0  0  0  0
    0.5554   -8.8797   37.1123 H   0  0  0  0  0  0  0  0  0  0  0  0
   -1.5484   -7.9872   35.9843 H   0  0  0  0  0  0  0  0  0  0  0  0
    4.2277   -7.0866   38.2815 H   0  0  0  0  0  0  0  0  0  0  0  0
    2.8504   -8.0904   38.2885 H   0  0  0  0  0  0  0  0  0  0  0  0
    3.8341  -10.3524   39.4074 H   0  0  0  0  0  0  0  0  0  0  0  0
    5.5141  -12.2181   38.5919 H   0  0  0  0  0  0  0  0  0  0  0  0
    5.0669   -8.7620   34.6243 H   0  0  0  0  0  0  0  0  0  0  0  0
    6.4938   -8.0432   35.3823 H   0  0  0  0  0  0  0  0  0  0  0  0
    5.1524   -6.4695   36.7480 H   0  0  0  0  0  0  0  0  0  0  0  0
    5.4591   -5.7633   34.6922 H   0  0  0  0  0  0  0  0  0  0  0  0
    4.4624   -3.8899   36.0262 H   0  0  0  0  0  0  0  0  0  0  0  0
    2.5563   -2.4744   36.3430 H   0  0  0  0  0  0  0  0  0  0  0  0
    0.8887   -1.6067   37.3255 H   0  0  0  0  0  0  0  0  0  0  0  0
   -0.8157   -1.6650   37.5862 H   0  0  0  0  0  0  0  0  0  0  0  0
    2.3700   -3.1964   38.6100 H   0  0  0  0  0  0  0  0  0  0  0  0
    2.4903   -4.7376   40.5418 H   0  0  0  0  0  0  0  0  0  0  0  0
   -1.5904   -5.1316   40.7065 H   0  0  0  0  0  0  0  0  0  0  0  0
   -1.9203   -3.6180   38.7510 H   0  0  0  0  0  0  0  0  0  0  0  0
   -0.7502   -4.7916   33.3487 H   0  0  0  0  0  0  0  0  0  0  0  0
  1  2  2  0
  2  3  1  0
  3  4  1  0
  3  5  1  0
  2  6  1  0
  6  7  1  0
  7  8  1  0
  8  9  1  0
  9 10  2  0
 10 11  1  0
 11 12  1  0
 12 13  1  0
 13 14  1  0
 14 15  1  0
 15 16  1  0
 16 17  2  0
 17 18  1  0
 18 19  2  0
 19 20  1  0
 20 21  1  0
 21 22  1  0
 22 23  2  0
 23 24  1  0
 24 25  2  0
 25 26  1  0
 26 27  2  0
 19 28  1  0
 28 29  1  0
 29 30  2  0
 30 31  1  0
 31 32  2  0
 14  6  1  0
 32 16  1  0
 12  8  2  0
 27 22  1  0
 32 28  1  0
  3 33  1  0
  4 34  1  0
  7 35  1  0
  7 36  1  0
  9 37  1  0
 10 38  1  0
 13 39  1  0
 13 40  1  0
 14 41  1  0
 15 42  1  0
 17 43  1  0
 18 44  1  0
 21 45  1  0
 21 46  1  0
 23 47  1  0
 24 48  1  0
 26 49  1  0
 27 50  1  0
 29 51  1  0
M  END
>  <Energy>  (89) 
178.13746178070727

>  <compound_id>  (89) 
2385

>  <target_id>  (89) 
1

>  <reference_id>  (89) 
167

>  <inspiration_ids>  (89) 
[164, 167]

>  <energy_score>  (89) 
34.90236835758816

>  <distance_score>  (89) 
3.352510824454686

>  <path>  (89) 
/opt/xchem-fragalysis-2/maxwin/BulkDock/SCRATCH/505736/C2385-P167/C2385-P167.minimised.mol

>  <scratch_subdir>  (89) 
/opt/xchem-fragalysis-2/maxwin/BulkDock/SCRATCH/505736/C2385-P167

>  <fragmenstein_runtime>  (89) 
6.499680757522583

>  <fragmenstein_outcome>  (89) 
too moved

>  <fragmenstein_mode>  (89) 
expansion

>  <fragmenstein_error>  (89) 


$$$$
C2386-P164
     RDKit          3D

 41 45  0  0  0  0  0  0  0  0999 V2000
   -2.6651   -0.9686   40.2938 F   0  0  0  0  0  0  0  0  0  0  0  0
   -2.1213   -1.6796   39.2969 C   0  0  0  0  0  0  0  0  0  0  0  0
   -2.1867   -3.0670   39.3383 C   0  0  0  0  0  0  0  0  0  0  0  0
   -1.6328   -3.8353   38.3042 C   0  0  0  0  0  0  0  0  0  0  0  0
   -1.0022   -3.1872   37.2371 C   0  0  0  0  0  0  0  0  0  0  0  0
   -0.3719   -3.6958   36.1275 N   0  0  0  0  0  0  0  0  0  0  0  0
    0.0219   -2.6489   35.4368 C   0  0  0  0  0  0  0  0  0  0  0  0
    0.8184   -2.5702   33.8638 S   0  0  0  0  0  0  0  0  0  0  0  0
    0.7148   -4.2402   33.3503 C   0  0  0  0  0  0  0  0  0  0  0  0
    1.0936   -5.2439   34.3287 C   0  0  0  0  0  0  0  0  0  0  0  0
    0.3969   -6.3916   34.3798 C   0  0  0  0  0  0  0  0  0  0  0  0
    0.3605   -7.3956   35.7910 S   0  0  0  0  0  0  0  0  0  0  0  0
    1.3142   -6.4749   37.0490 C   0  0  0  0  0  0  0  0  0  0  0  0
    0.9485   -6.7751   38.4777 C   0  0  0  0  0  0  0  0  0  0  0  0
    0.8070   -8.0732   38.9542 C   0  0  0  0  0  0  0  0  0  0  0  0
    0.4528   -8.2763   40.2782 C   0  0  0  0  0  0  0  0  0  0  0  0
    0.2526   -7.2754   41.1605 N   0  0  0  0  0  0  0  0  0  0  0  0
    0.4418   -6.0238   40.7027 C   0  0  0  0  0  0  0  0  0  0  0  0
    0.8064   -5.7313   39.3986 C   0  0  0  0  0  0  0  0  0  0  0  0
   -0.3262   -6.7335   33.2245 N   0  0  0  0  0  0  0  0  0  0  0  0
   -1.1258   -7.7949   32.9017 C   0  0  0  0  0  0  0  0  0  0  0  0
   -1.3907   -7.8002   31.6145 N   0  0  0  0  0  0  0  0  0  0  0  0
   -0.8504   -6.6530   31.0814 N   0  0  0  0  0  0  0  0  0  0  0  0
   -0.3080   -5.9655   32.0638 C   0  0  0  0  0  0  0  0  0  0  0  0
    0.1476   -4.6176   32.1834 C   0  0  0  0  0  0  0  0  0  0  0  0
   -0.2852   -1.4850   36.0834 N   0  0  0  0  0  0  0  0  0  0  0  0
   -0.9555   -1.7982   37.2371 C   0  0  0  0  0  0  0  0  0  0  0  0
   -1.5049   -1.0030   38.2454 C   0  0  0  0  0  0  0  0  0  0  0  0
   -2.6807   -3.5596   40.1722 H   0  0  0  0  0  0  0  0  0  0  0  0
   -1.6859   -4.9177   38.3309 H   0  0  0  0  0  0  0  0  0  0  0  0
    1.7820   -4.9103   35.0931 H   0  0  0  0  0  0  0  0  0  0  0  0
    2.3793   -6.6864   36.9028 H   0  0  0  0  0  0  0  0  0  0  0  0
    1.1715   -5.4045   36.9224 H   0  0  0  0  0  0  0  0  0  0  0  0
    0.9595   -8.9268   38.3118 H   0  0  0  0  0  0  0  0  0  0  0  0
    0.3180   -9.2821   40.6692 H   0  0  0  0  0  0  0  0  0  0  0  0
    0.2955   -5.2350   41.4345 H   0  0  0  0  0  0  0  0  0  0  0  0
    0.9622   -4.6968   39.1113 H   0  0  0  0  0  0  0  0  0  0  0  0
   -1.4624   -8.5150   33.6250 H   0  0  0  0  0  0  0  0  0  0  0  0
   -0.1598   -3.9059   31.4246 H   0  0  0  0  0  0  0  0  0  0  0  0
   -0.0867   -0.5594   35.7349 H   0  0  0  0  0  0  0  0  0  0  0  0
   -1.4620    0.0792   38.2286 H   0  0  0  0  0  0  0  0  0  0  0  0
  1  2  1  0
  2  3  2  0
  3  4  1  0
  4  5  2  0
  5  6  1  0
  6  7  2  0
  7  8  1  0
  8  9  1  0
  9 10  1  0
 10 11  2  0
 11 12  1  0
 12 13  1  0
 13 14  1  0
 14 15  2  0
 15 16  1  0
 16 17  2  0
 17 18  1  0
 18 19  2  0
 11 20  1  0
 20 21  1  0
 21 22  2  0
 22 23  1  0
 23 24  2  0
 24 25  1  0
  7 26  1  0
 26 27  1  0
 27 28  2  0
 28  2  1  0
 27  5  1  0
 25  9  2  0
 19 14  1  0
 24 20  1  0
  3 29  1  0
  4 30  1  0
 10 31  1  0
 13 32  1  0
 13 33  1  0
 15 34  1  0
 16 35  1  0
 18 36  1  0
 19 37  1  0
 21 38  1  0
 25 39  1  0
 26 40  1  0
 28 41  1  0
M  END
>  <Energy>  (90) 
60.359595164492028

>  <compound_id>  (90) 
2386

>  <target_id>  (90) 
1

>  <reference_id>  (90) 
164

>  <inspiration_ids>  (90) 
[164, 168]

>  <energy_score>  (90) 
-19.912511322098965

>  <distance_score>  (90) 
1.3781250122531723

>  <path>  (90) 
/opt/xchem-fragalysis-2/maxwin/BulkDock/SCRATCH/505736/C2386-P164/C2386-P164.minimised.mol

>  <scratch_subdir>  (90) 
/opt/xchem-fragalysis-2/maxwin/BulkDock/SCRATCH/505736/C2386-P164

>  <fragmenstein_runtime>  (90) 
2.29569673538208

>  <fragmenstein_outcome>  (90) 
too moved

>  <fragmenstein_mode>  (90) 
expansion

>  <fragmenstein_error>  (90) 


$$$$
C2386-P168
     RDKit          3D

 41 45  0  0  0  0  0  0  0  0999 V2000
   -3.1806   -1.0156   40.4635 F   0  0  0  0  0  0  0  0  0  0  0  0
   -2.5366   -1.7016   39.5097 C   0  0  0  0  0  0  0  0  0  0  0  0
   -2.4694   -3.0870   39.5974 C   0  0  0  0  0  0  0  0  0  0  0  0
   -1.8103   -3.8298   38.6077 C   0  0  0  0  0  0  0  0  0  0  0  0
   -1.2123   -3.1555   37.5362 C   0  0  0  0  0  0  0  0  0  0  0  0
   -0.5027   -3.6322   36.4622 N   0  0  0  0  0  0  0  0  0  0  0  0
   -0.2078   -2.5761   35.7352 C   0  0  0  0  0  0  0  0  0  0  0  0
    0.5981   -2.4672   34.1686 S   0  0  0  0  0  0  0  0  0  0  0  0
    0.5022   -4.1213   33.6010 C   0  0  0  0  0  0  0  0  0  0  0  0
    0.7511   -5.1586   34.5798 C   0  0  0  0  0  0  0  0  0  0  0  0
    0.1673   -6.3582   34.4539 C   0  0  0  0  0  0  0  0  0  0  0  0
    0.0224   -7.4256   35.8002 S   0  0  0  0  0  0  0  0  0  0  0  0
    1.4606   -7.0751   36.8642 C   0  0  0  0  0  0  0  0  0  0  0  0
    1.0830   -6.8763   38.3056 C   0  0  0  0  0  0  0  0  0  0  0  0
    0.7827   -7.9745   39.1097 C   0  0  0  0  0  0  0  0  0  0  0  0
    0.4229   -7.7823   40.4308 C   0  0  0  0  0  0  0  0  0  0  0  0
    0.3550   -6.5685   41.0087 N   0  0  0  0  0  0  0  0  0  0  0  0
    0.6700   -5.5136   40.2289 C   0  0  0  0  0  0  0  0  0  0  0  0
    1.0354   -5.6139   38.8923 C   0  0  0  0  0  0  0  0  0  0  0  0
   -0.4015   -6.6584   33.2084 N   0  0  0  0  0  0  0  0  0  0  0  0
   -1.1080   -7.7313   32.7383 C   0  0  0  0  0  0  0  0  0  0  0  0
   -1.2677   -7.6467   31.4366 N   0  0  0  0  0  0  0  0  0  0  0  0
   -0.7400   -6.4394   31.0373 N   0  0  0  0  0  0  0  0  0  0  0  0
   -0.3131   -5.8072   32.1110 C   0  0  0  0  0  0  0  0  0  0  0  0
    0.0896   -4.4575   32.3575 C   0  0  0  0  0  0  0  0  0  0  0  0
   -0.6327   -1.4277   36.3403 N   0  0  0  0  0  0  0  0  0  0  0  0
   -1.3012   -1.7692   37.4872 C   0  0  0  0  0  0  0  0  0  0  0  0
   -1.9558   -1.0011   38.4530 C   0  0  0  0  0  0  0  0  0  0  0  0
   -2.9413   -3.5999   40.4320 H   0  0  0  0  0  0  0  0  0  0  0  0
   -1.7687   -4.9123   38.6706 H   0  0  0  0  0  0  0  0  0  0  0  0
    1.2401   -4.8356   35.4882 H   0  0  0  0  0  0  0  0  0  0  0  0
    2.1188   -7.9492   36.8007 H   0  0  0  0  0  0  0  0  0  0  0  0
    2.0969   -6.2540   36.5304 H   0  0  0  0  0  0  0  0  0  0  0  0
    0.8299   -8.9794   38.7230 H   0  0  0  0  0  0  0  0  0  0  0  0
    0.1786   -8.6268   41.0697 H   0  0  0  0  0  0  0  0  0  0  0  0
    0.6142   -4.5455   40.7190 H   0  0  0  0  0  0  0  0  0  0  0  0
    1.2676   -4.7174   38.3280 H   0  0  0  0  0  0  0  0  0  0  0  0
   -1.4665   -8.5210   33.3731 H   0  0  0  0  0  0  0  0  0  0  0  0
   -0.1139   -3.7157   31.5928 H   0  0  0  0  0  0  0  0  0  0  0  0
   -0.5183   -0.4983   35.9651 H   0  0  0  0  0  0  0  0  0  0  0  0
   -2.0184    0.0790   38.4007 H   0  0  0  0  0  0  0  0  0  0  0  0
  1  2  1  0
  2  3  2  0
  3  4  1  0
  4  5  2  0
  5  6  1  0
  6  7  2  0
  7  8  1  0
  8  9  1  0
  9 10  1  0
 10 11  2  0
 11 12  1  0
 12 13  1  0
 13 14  1  0
 14 15  2  0
 15 16  1  0
 16 17  2  0
 17 18  1  0
 18 19  2  0
 11 20  1  0
 20 21  1  0
 21 22  2  0
 22 23  1  0
 23 24  2  0
 24 25  1  0
  7 26  1  0
 26 27  1  0
 27 28  2  0
 28  2  1  0
 27  5  1  0
 25  9  2  0
 19 14  1  0
 24 20  1  0
  3 29  1  0
  4 30  1  0
 10 31  1  0
 13 32  1  0
 13 33  1  0
 15 34  1  0
 16 35  1  0
 18 36  1  0
 19 37  1  0
 21 38  1  0
 25 39  1  0
 26 40  1  0
 28 41  1  0
M  END
>  <Energy>  (91) 
57.841700285382515

>  <compound_id>  (91) 
2386

>  <target_id>  (91) 
1

>  <reference_id>  (91) 
168

>  <inspiration_ids>  (91) 
[164, 168]

>  <energy_score>  (91) 
-22.430406201208754

>  <distance_score>  (91) 
1.403231627683994

>  <path>  (91) 
/opt/xchem-fragalysis-2/maxwin/BulkDock/SCRATCH/505736/C2386-P168/C2386-P168.minimised.mol

>  <scratch_subdir>  (91) 
/opt/xchem-fragalysis-2/maxwin/BulkDock/SCRATCH/505736/C2386-P168

>  <fragmenstein_runtime>  (91) 
2.4681315422058105

>  <fragmenstein_outcome>  (91) 
too moved

>  <fragmenstein_mode>  (91) 
expansion

>  <fragmenstein_error>  (91) 


$$$$
C2387-P164
     RDKit          3D

 41 44  0  0  0  0  0  0  0  0999 V2000
    5.4480   -5.0318   27.8223 O   0  0  0  0  0  0  0  0  0  0  0  0
    4.9650   -6.1918   28.5330 S   0  0  0  0  0  0  0  0  0  0  0  0
    4.1636   -7.2167   27.9042 O   0  0  0  0  0  0  0  0  0  0  0  0
    4.0311   -5.5584   29.8394 N   0  0  0  0  0  0  0  0  0  0  0  0
    2.5218   -5.5201   29.6531 C   0  0  0  0  0  0  0  0  0  0  0  0
    1.7649   -5.6734   31.0040 C   0  0  0  0  0  0  0  0  0  0  0  0
    2.2125   -5.0708   32.1338 C   0  0  0  0  0  0  0  0  0  0  0  0
    1.6162   -5.2743   33.4529 C   0  0  0  0  0  0  0  0  0  0  0  0
    0.5776   -6.1189   33.6145 C   0  0  0  0  0  0  0  0  0  0  0  0
   -0.1608   -6.4903   35.1544 S   0  0  0  0  0  0  0  0  0  0  0  0
    1.0738   -6.0217   36.4007 C   0  0  0  0  0  0  0  0  0  0  0  0
    0.6489   -6.3959   37.7976 C   0  0  0  0  0  0  0  0  0  0  0  0
    0.9183   -7.6654   38.3194 C   0  0  0  0  0  0  0  0  0  0  0  0
    0.5121   -7.9623   39.6126 C   0  0  0  0  0  0  0  0  0  0  0  0
   -0.1296   -7.0851   40.4126 N   0  0  0  0  0  0  0  0  0  0  0  0
   -0.3932   -5.8684   39.8926 C   0  0  0  0  0  0  0  0  0  0  0  0
   -0.0335   -5.4836   38.6093 C   0  0  0  0  0  0  0  0  0  0  0  0
    0.0609   -6.7130   32.4488 N   0  0  0  0  0  0  0  0  0  0  0  0
   -0.9868   -7.5814   32.2590 C   0  0  0  0  0  0  0  0  0  0  0  0
   -1.1156   -7.8749   30.9860 N   0  0  0  0  0  0  0  0  0  0  0  0
   -0.1206   -7.2121   30.3035 N   0  0  0  0  0  0  0  0  0  0  0  0
    0.5865   -6.5097   31.1677 C   0  0  0  0  0  0  0  0  0  0  0  0
    6.4608   -7.0171   29.1252 C   0  0  0  0  0  0  0  0  0  0  0  0
    7.2990   -6.8809   30.2219 C   0  0  0  0  0  0  0  0  0  0  0  0
    8.3946   -7.7836   30.1404 C   0  0  0  0  0  0  0  0  0  0  0  0
    8.4444   -8.5669   29.0694 N   0  0  0  0  0  0  0  0  0  0  0  0
    7.1383   -8.2190   28.1047 S   0  0  0  0  0  0  0  0  0  0  0  0
    4.3784   -4.6086   30.0017 H   0  0  0  0  0  0  0  0  0  0  0  0
    2.2414   -4.5737   29.1793 H   0  0  0  0  0  0  0  0  0  0  0  0
    2.2129   -6.3410   29.0022 H   0  0  0  0  0  0  0  0  0  0  0  0
    3.0882   -4.4265   32.1098 H   0  0  0  0  0  0  0  0  0  0  0  0
    2.0771   -4.7283   34.2686 H   0  0  0  0  0  0  0  0  0  0  0  0
    2.0294   -6.5081   36.1721 H   0  0  0  0  0  0  0  0  0  0  0  0
    1.2438   -4.9400   36.3599 H   0  0  0  0  0  0  0  0  0  0  0  0
    1.4285   -8.4251   37.7399 H   0  0  0  0  0  0  0  0  0  0  0  0
    0.6906   -8.9452   40.0441 H   0  0  0  0  0  0  0  0  0  0  0  0
   -0.9330   -5.1915   40.5494 H   0  0  0  0  0  0  0  0  0  0  0  0
   -0.2925   -4.4906   38.2565 H   0  0  0  0  0  0  0  0  0  0  0  0
   -1.6058   -7.9601   33.0601 H   0  0  0  0  0  0  0  0  0  0  0  0
    7.1388   -6.1702   31.0206 H   0  0  0  0  0  0  0  0  0  0  0  0
    9.1939   -7.8817   30.8647 H   0  0  0  0  0  0  0  0  0  0  0  0
  1  2  2  0
  2  3  2  0
  2  4  1  0
  4  5  1  0
  5  6  1  0
  6  7  2  0
  7  8  1  0
  8  9  2  0
  9 10  1  0
 10 11  1  0
 11 12  1  0
 12 13  2  0
 13 14  1  0
 14 15  2  0
 15 16  1  0
 16 17  2  0
  9 18  1  0
 18 19  1  0
 19 20  2  0
 20 21  1  0
 21 22  2  0
  2 23  1  0
 23 24  2  0
 24 25  1  0
 25 26  2  0
 26 27  1  0
 22  6  1  0
 27 23  1  0
 17 12  1  0
 22 18  1  0
  4 28  1  0
  5 29  1  0
  5 30  1  0
  7 31  1  0
  8 32  1  0
 11 33  1  0
 11 34  1  0
 13 35  1  0
 14 36  1  0
 16 37  1  0
 17 38  1  0
 19 39  1  0
 24 40  1  0
 25 41  1  0
M  END
>  <Energy>  (92) 
-24.354864369860913

>  <compound_id>  (92) 
2387

>  <target_id>  (92) 
1

>  <reference_id>  (92) 
164

>  <inspiration_ids>  (92) 
[164, 175]

>  <energy_score>  (92) 
-41.182205335958145

>  <distance_score>  (92) 
1.6094672186968073

>  <path>  (92) 
/opt/xchem-fragalysis-2/maxwin/BulkDock/SCRATCH/505736/C2387-P164/C2387-P164.minimised.mol

>  <scratch_subdir>  (92) 
/opt/xchem-fragalysis-2/maxwin/BulkDock/SCRATCH/505736/C2387-P164

>  <fragmenstein_runtime>  (92) 
2.8190717697143555

>  <fragmenstein_outcome>  (92) 
too moved

>  <fragmenstein_mode>  (92) 
expansion

>  <fragmenstein_error>  (92) 


$$$$
C2387-P175
     RDKit          3D

 41 44  0  0  0  0  0  0  0  0999 V2000
    5.6403   -4.8844   30.2718 O   0  0  0  0  0  0  0  0  0  0  0  0
    5.4242   -5.7107   29.1062 S   0  0  0  0  0  0  0  0  0  0  0  0
    5.5457   -5.2027   27.7593 O   0  0  0  0  0  0  0  0  0  0  0  0
    3.7928   -6.3142   29.1974 N   0  0  0  0  0  0  0  0  0  0  0  0
    2.7305   -5.3002   29.6342 C   0  0  0  0  0  0  0  0  0  0  0  0
    1.9818   -5.6679   30.9442 C   0  0  0  0  0  0  0  0  0  0  0  0
    2.3792   -5.0650   32.0935 C   0  0  0  0  0  0  0  0  0  0  0  0
    1.7552   -5.2885   33.3944 C   0  0  0  0  0  0  0  0  0  0  0  0
    0.7074   -6.1269   33.5204 C   0  0  0  0  0  0  0  0  0  0  0  0
   -0.0912   -6.4772   35.0387 S   0  0  0  0  0  0  0  0  0  0  0  0
    1.0773   -5.9463   36.3231 C   0  0  0  0  0  0  0  0  0  0  0  0
    0.6369   -6.3178   37.7170 C   0  0  0  0  0  0  0  0  0  0  0  0
    0.9042   -7.5862   38.2387 C   0  0  0  0  0  0  0  0  0  0  0  0
    0.5098   -7.8782   39.5359 C   0  0  0  0  0  0  0  0  0  0  0  0
   -0.1261   -7.0036   40.3429 N   0  0  0  0  0  0  0  0  0  0  0  0
   -0.3937   -5.7887   39.8190 C   0  0  0  0  0  0  0  0  0  0  0  0
   -0.0400   -5.4049   38.5321 C   0  0  0  0  0  0  0  0  0  0  0  0
    0.2372   -6.7270   32.3356 N   0  0  0  0  0  0  0  0  0  0  0  0
   -0.8035   -7.5967   32.1109 C   0  0  0  0  0  0  0  0  0  0  0  0
   -0.8804   -7.9002   30.8352 N   0  0  0  0  0  0  0  0  0  0  0  0
    0.1434   -7.2439   30.1866 N   0  0  0  0  0  0  0  0  0  0  0  0
    0.8140   -6.5279   31.0689 C   0  0  0  0  0  0  0  0  0  0  0  0
    6.6256   -7.0625   29.1794 C   0  0  0  0  0  0  0  0  0  0  0  0
    6.9033   -8.1800   28.4121 C   0  0  0  0  0  0  0  0  0  0  0  0
    7.9699   -8.9414   28.9673 C   0  0  0  0  0  0  0  0  0  0  0  0
    8.5546   -8.4344   30.0428 N   0  0  0  0  0  0  0  0  0  0  0  0
    7.8510   -6.9714   30.3687 S   0  0  0  0  0  0  0  0  0  0  0  0
    3.5662   -6.5620   28.2276 H   0  0  0  0  0  0  0  0  0  0  0  0
    3.1806   -4.3042   29.7187 H   0  0  0  0  0  0  0  0  0  0  0  0
    1.9985   -5.2190   28.8242 H   0  0  0  0  0  0  0  0  0  0  0  0
    3.2267   -4.3788   32.0901 H   0  0  0  0  0  0  0  0  0  0  0  0
    2.1908   -4.7409   34.2228 H   0  0  0  0  0  0  0  0  0  0  0  0
    2.0600   -6.3937   36.1323 H   0  0  0  0  0  0  0  0  0  0  0  0
    1.2031   -4.8590   36.2693 H   0  0  0  0  0  0  0  0  0  0  0  0
    1.4002   -8.3483   37.6496 H   0  0  0  0  0  0  0  0  0  0  0  0
    0.6949   -8.8579   39.9656 H   0  0  0  0  0  0  0  0  0  0  0  0
   -0.9281   -5.1084   40.4768 H   0  0  0  0  0  0  0  0  0  0  0  0
   -0.2959   -4.4110   38.1797 H   0  0  0  0  0  0  0  0  0  0  0  0
   -1.4520   -7.9712   32.8917 H   0  0  0  0  0  0  0  0  0  0  0  0
    6.3720   -8.4200   27.5047 H   0  0  0  0  0  0  0  0  0  0  0  0
    8.3576   -9.8768   28.5818 H   0  0  0  0  0  0  0  0  0  0  0  0
  1  2  2  0
  2  3  2  0
  2  4  1  0
  4  5  1  0
  5  6  1  0
  6  7  2  0
  7  8  1  0
  8  9  2  0
  9 10  1  0
 10 11  1  0
 11 12  1  0
 12 13  2  0
 13 14  1  0
 14 15  2  0
 15 16  1  0
 16 17  2  0
  9 18  1  0
 18 19  1  0
 19 20  2  0
 20 21  1  0
 21 22  2  0
  2 23  1  0
 23 24  2  0
 24 25  1  0
 25 26  2  0
 26 27  1  0
 22  6  1  0
 27 23  1  0
 17 12  1  0
 22 18  1  0
  4 28  1  0
  5 29  1  0
  5 30  1  0
  7 31  1  0
  8 32  1  0
 11 33  1  0
 11 34  1  0
 13 35  1  0
 14 36  1  0
 16 37  1  0
 17 38  1  0
 19 39  1  0
 24 40  1  0
 25 41  1  0
M  END
>  <Energy>  (93) 
-24.191582117046277

>  <compound_id>  (93) 
2387

>  <target_id>  (93) 
1

>  <reference_id>  (93) 
175

>  <inspiration_ids>  (93) 
[164, 175]

>  <energy_score>  (93) 
-41.01892308314396

>  <distance_score>  (93) 
1.7990553167395527

>  <path>  (93) 
/opt/xchem-fragalysis-2/maxwin/BulkDock/SCRATCH/505736/C2387-P175/C2387-P175.minimised.mol

>  <scratch_subdir>  (93) 
/opt/xchem-fragalysis-2/maxwin/BulkDock/SCRATCH/505736/C2387-P175

>  <fragmenstein_runtime>  (93) 
2.7306854724884033

>  <fragmenstein_outcome>  (93) 
too moved

>  <fragmenstein_mode>  (93) 
expansion

>  <fragmenstein_error>  (93) 


$$$$
C2388-P164
     RDKit          3D

 44 47  0  0  0  0  0  0  0  0999 V2000
    5.4059   -3.0148   28.8880 O   0  0  0  0  0  0  0  0  0  0  0  0
    4.0861   -3.1334   28.3179 S   0  0  0  0  0  0  0  0  0  0  0  0
    3.5968   -2.3063   27.2490 O   0  0  0  0  0  0  0  0  0  0  0  0
    3.0168   -2.9739   29.5905 N   0  0  0  0  0  0  0  0  0  0  0  0
    1.5861   -2.8460   29.2941 C   0  0  0  0  0  0  0  0  0  0  0  0
    0.7276   -4.0930   29.6559 C   0  0  0  0  0  0  0  0  0  0  0  0
    0.6947   -4.7966   31.0331 C   0  0  0  0  0  0  0  0  0  0  0  0
    1.2448   -4.2661   32.1509 C   0  0  0  0  0  0  0  0  0  0  0  0
    1.0861   -4.8561   33.4853 C   0  0  0  0  0  0  0  0  0  0  0  0
    0.3288   -5.9586   33.6640 C   0  0  0  0  0  0  0  0  0  0  0  0
   -0.0354   -6.6997   35.1998 S   0  0  0  0  0  0  0  0  0  0  0  0
    0.9642   -5.8413   36.4445 C   0  0  0  0  0  0  0  0  0  0  0  0
    0.6205   -6.2955   37.8428 C   0  0  0  0  0  0  0  0  0  0  0  0
    0.9641   -7.5722   38.3032 C   0  0  0  0  0  0  0  0  0  0  0  0
    0.6034   -7.9431   39.5911 C   0  0  0  0  0  0  0  0  0  0  0  0
   -0.0523   -7.1298   40.4460 N   0  0  0  0  0  0  0  0  0  0  0  0
   -0.3748   -5.9022   39.9906 C   0  0  0  0  0  0  0  0  0  0  0  0
   -0.0687   -5.4474   38.7165 C   0  0  0  0  0  0  0  0  0  0  0  0
   -0.2151   -6.5418   32.5069 N   0  0  0  0  0  0  0  0  0  0  0  0
   -1.0102   -7.6490   32.3293 C   0  0  0  0  0  0  0  0  0  0  0  0
   -1.2049   -7.8755   31.0509 N   0  0  0  0  0  0  0  0  0  0  0  0
   -0.5429   -6.8937   30.3534 N   0  0  0  0  0  0  0  0  0  0  0  0
   -0.0071   -6.0537   31.2178 C   0  0  0  0  0  0  0  0  0  0  0  0
    3.9109   -4.7669   27.8101 C   0  0  0  0  0  0  0  0  0  0  0  0
    3.2468   -5.8726   28.2891 C   0  0  0  0  0  0  0  0  0  0  0  0
    3.1463   -6.8198   27.2505 C   0  0  0  0  0  0  0  0  0  0  0  0
    3.8444   -6.5766   26.1510 N   0  0  0  0  0  0  0  0  0  0  0  0
    4.6992   -5.1727   26.3774 S   0  0  0  0  0  0  0  0  0  0  0  0
    3.3717   -2.2273   30.1926 H   0  0  0  0  0  0  0  0  0  0  0  0
    1.4012   -2.5815   28.2517 H   0  0  0  0  0  0  0  0  0  0  0  0
    1.2114   -1.9966   29.8796 H   0  0  0  0  0  0  0  0  0  0  0  0
    0.9560   -4.8552   28.9138 H   0  0  0  0  0  0  0  0  0  0  0  0
   -0.3146   -3.8090   29.4470 H   0  0  0  0  0  0  0  0  0  0  0  0
    1.7743   -3.3171   32.1176 H   0  0  0  0  0  0  0  0  0  0  0  0
    1.5562   -4.3131   34.2976 H   0  0  0  0  0  0  0  0  0  0  0  0
    2.0282   -6.0230   36.2559 H   0  0  0  0  0  0  0  0  0  0  0  0
    0.7951   -4.7620   36.3672 H   0  0  0  0  0  0  0  0  0  0  0  0
    1.4874   -8.2843   37.6757 H   0  0  0  0  0  0  0  0  0  0  0  0
    0.8312   -8.9362   39.9730 H   0  0  0  0  0  0  0  0  0  0  0  0
   -0.9187   -5.2762   40.6928 H   0  0  0  0  0  0  0  0  0  0  0  0
   -0.3793   -4.4511   38.4192 H   0  0  0  0  0  0  0  0  0  0  0  0
   -1.4003   -8.2447   33.1424 H   0  0  0  0  0  0  0  0  0  0  0  0
    2.7601   -5.9343   29.2486 H   0  0  0  0  0  0  0  0  0  0  0  0
    2.5662   -7.7333   27.2456 H   0  0  0  0  0  0  0  0  0  0  0  0
  1  2  2  0
  2  3  2  0
  2  4  1  0
  4  5  1  0
  5  6  1  0
  6  7  1  0
  7  8  2  0
  8  9  1  0
  9 10  2  0
 10 11  1  0
 11 12  1  0
 12 13  1  0
 13 14  2  0
 14 15  1  0
 15 16  2  0
 16 17  1  0
 17 18  2  0
 10 19  1  0
 19 20  1  0
 20 21  2  0
 21 22  1  0
 22 23  2  0
  2 24  1  0
 24 25  2  0
 25 26  1  0
 26 27  2  0
 27 28  1  0
 23  7  1  0
 28 24  1  0
 18 13  1  0
 23 19  1  0
  4 29  1  0
  5 30  1  0
  5 31  1  0
  6 32  1  0
  6 33  1  0
  8 34  1  0
  9 35  1  0
 12 36  1  0
 12 37  1  0
 14 38  1  0
 15 39  1  0
 17 40  1  0
 18 41  1  0
 20 42  1  0
 25 43  1  0
 26 44  1  0
M  END
>  <Energy>  (94) 
0.78257091201956008

>  <compound_id>  (94) 
2388

>  <target_id>  (94) 
1

>  <reference_id>  (94) 
164

>  <inspiration_ids>  (94) 
[164, 177]

>  <energy_score>  (94) 
-46.64213617023421

>  <distance_score>  (94) 
1.8395370663185102

>  <path>  (94) 
/opt/xchem-fragalysis-2/maxwin/BulkDock/SCRATCH/505736/C2388-P164/C2388-P164.minimised.mol

>  <scratch_subdir>  (94) 
/opt/xchem-fragalysis-2/maxwin/BulkDock/SCRATCH/505736/C2388-P164

>  <fragmenstein_runtime>  (94) 
3.8609282970428467

>  <fragmenstein_outcome>  (94) 
too moved

>  <fragmenstein_mode>  (94) 
expansion

>  <fragmenstein_error>  (94) 


$$$$
C2388-P177
     RDKit          3D

 44 47  0  0  0  0  0  0  0  0999 V2000
    3.0598   -1.4034   27.1539 O   0  0  0  0  0  0  0  0  0  0  0  0
    2.6911   -2.6914   26.6140 S   0  0  0  0  0  0  0  0  0  0  0  0
    2.2857   -2.9140   25.2512 O   0  0  0  0  0  0  0  0  0  0  0  0
    1.4189   -3.2408   27.5383 N   0  0  0  0  0  0  0  0  0  0  0  0
    1.6307   -3.4484   28.9814 C   0  0  0  0  0  0  0  0  0  0  0  0
    0.7650   -4.6642   29.4033 C   0  0  0  0  0  0  0  0  0  0  0  0
    0.6467   -5.1235   30.8658 C   0  0  0  0  0  0  0  0  0  0  0  0
    1.2635   -4.5311   31.9173 C   0  0  0  0  0  0  0  0  0  0  0  0
    1.0649   -4.9595   33.3106 C   0  0  0  0  0  0  0  0  0  0  0  0
    0.2246   -5.9751   33.6002 C   0  0  0  0  0  0  0  0  0  0  0  0
   -0.1803   -6.5394   35.1999 S   0  0  0  0  0  0  0  0  0  0  0  0
    1.0340   -5.8308   36.3422 C   0  0  0  0  0  0  0  0  0  0  0  0
    0.7278   -6.2316   37.7661 C   0  0  0  0  0  0  0  0  0  0  0  0
    1.1054   -7.4830   38.2658 C   0  0  0  0  0  0  0  0  0  0  0  0
    0.7606   -7.8217   39.5670 C   0  0  0  0  0  0  0  0  0  0  0  0
    0.0811   -7.0024   40.3967 N   0  0  0  0  0  0  0  0  0  0  0  0
   -0.2736   -5.7978   39.9037 C   0  0  0  0  0  0  0  0  0  0  0  0
    0.0173   -5.3752   38.6144 C   0  0  0  0  0  0  0  0  0  0  0  0
   -0.3995   -6.6029   32.5091 N   0  0  0  0  0  0  0  0  0  0  0  0
   -1.2986   -7.6342   32.4431 C   0  0  0  0  0  0  0  0  0  0  0  0
   -1.5712   -7.9388   31.1968 N   0  0  0  0  0  0  0  0  0  0  0  0
   -0.8612   -7.0793   30.4023 N   0  0  0  0  0  0  0  0  0  0  0  0
   -0.1946   -6.2516   31.1823 C   0  0  0  0  0  0  0  0  0  0  0  0
    3.9804   -3.7723   27.0394 C   0  0  0  0  0  0  0  0  0  0  0  0
    5.0560   -3.6699   27.8916 C   0  0  0  0  0  0  0  0  0  0  0  0
    5.5241   -4.9667   28.2075 C   0  0  0  0  0  0  0  0  0  0  0  0
    4.8950   -5.9921   27.6451 N   0  0  0  0  0  0  0  0  0  0  0  0
    3.7825   -5.3910   26.5970 S   0  0  0  0  0  0  0  0  0  0  0  0
    0.5514   -2.7640   27.2865 H   0  0  0  0  0  0  0  0  0  0  0  0
    1.3011   -2.5508   29.5155 H   0  0  0  0  0  0  0  0  0  0  0  0
    2.6672   -3.6431   29.2547 H   0  0  0  0  0  0  0  0  0  0  0  0
   -0.2604   -4.4692   29.0556 H   0  0  0  0  0  0  0  0  0  0  0  0
    1.1121   -5.5290   28.8202 H   0  0  0  0  0  0  0  0  0  0  0  0
    1.9115   -3.6689   31.7776 H   0  0  0  0  0  0  0  0  0  0  0  0
    1.5868   -4.3825   34.0662 H   0  0  0  0  0  0  0  0  0  0  0  0
    2.0403   -6.1704   36.0725 H   0  0  0  0  0  0  0  0  0  0  0  0
    1.0253   -4.7382   36.2651 H   0  0  0  0  0  0  0  0  0  0  0  0
    1.6449   -8.2011   37.6591 H   0  0  0  0  0  0  0  0  0  0  0  0
    1.0243   -8.7929   39.9802 H   0  0  0  0  0  0  0  0  0  0  0  0
   -0.8333   -5.1642   40.5868 H   0  0  0  0  0  0  0  0  0  0  0  0
   -0.3234   -4.3994   38.2835 H   0  0  0  0  0  0  0  0  0  0  0  0
   -1.7170   -8.1104   33.3135 H   0  0  0  0  0  0  0  0  0  0  0  0
    5.4115   -2.7411   28.3171 H   0  0  0  0  0  0  0  0  0  0  0  0
    6.3433   -5.2000   28.8762 H   0  0  0  0  0  0  0  0  0  0  0  0
  1  2  2  0
  2  3  2  0
  2  4  1  0
  4  5  1  0
  5  6  1  0
  6  7  1  0
  7  8  2  0
  8  9  1  0
  9 10  2  0
 10 11  1  0
 11 12  1  0
 12 13  1  0
 13 14  2  0
 14 15  1  0
 15 16  2  0
 16 17  1  0
 17 18  2  0
 10 19  1  0
 19 20  1  0
 20 21  2  0
 21 22  1  0
 22 23  2  0
  2 24  1  0
 24 25  2  0
 25 26  1  0
 26 27  2  0
 27 28  1  0
 23  7  1  0
 28 24  1  0
 18 13  1  0
 23 19  1  0
  4 29  1  0
  5 30  1  0
  5 31  1  0
  6 32  1  0
  6 33  1  0
  8 34  1  0
  9 35  1  0
 12 36  1  0
 12 37  1  0
 14 38  1  0
 15 39  1  0
 17 40  1  0
 18 41  1  0
 20 42  1  0
 25 43  1  0
 26 44  1  0
M  END
>  <Energy>  (95) 
-0.28290101232812637

>  <compound_id>  (95) 
2388

>  <target_id>  (95) 
1

>  <reference_id>  (95) 
177

>  <inspiration_ids>  (95) 
[164, 177]

>  <energy_score>  (95) 
-47.70760809458086

>  <distance_score>  (95) 
1.8604264871756195

>  <path>  (95) 
/opt/xchem-fragalysis-2/maxwin/BulkDock/SCRATCH/505736/C2388-P177/C2388-P177.minimised.mol

>  <scratch_subdir>  (95) 
/opt/xchem-fragalysis-2/maxwin/BulkDock/SCRATCH/505736/C2388-P177

>  <fragmenstein_runtime>  (95) 
3.5330963134765625

>  <fragmenstein_outcome>  (95) 
too moved

>  <fragmenstein_mode>  (95) 
expansion

>  <fragmenstein_error>  (95) 


$$$$
C2389-P164
     RDKit          3D

 49 52  0  0  0  0  0  0  0  0999 V2000
    2.0855   -3.0263   31.5742 O   0  0  0  0  0  0  0  0  0  0  0  0
    2.6590   -2.4831   30.3684 S   0  0  0  0  0  0  0  0  0  0  0  0
    3.8696   -1.6939   30.3903 O   0  0  0  0  0  0  0  0  0  0  0  0
    2.9424   -3.7345   29.3066 N   0  0  0  0  0  0  0  0  0  0  0  0
    1.8877   -4.6986   28.9985 C   0  0  0  0  0  0  0  0  0  0  0  0
    2.0739   -5.9452   29.8421 C   0  0  0  0  0  0  0  0  0  0  0  0
    1.3488   -6.0491   31.1835 C   0  0  0  0  0  0  0  0  0  0  0  0
    1.9871   -5.6471   32.3064 C   0  0  0  0  0  0  0  0  0  0  0  0
    1.4457   -5.7940   33.6437 C   0  0  0  0  0  0  0  0  0  0  0  0
    0.3206   -6.5060   33.8383 C   0  0  0  0  0  0  0  0  0  0  0  0
   -0.3637   -6.8297   35.4083 S   0  0  0  0  0  0  0  0  0  0  0  0
    0.8656   -6.1944   36.5880 C   0  0  0  0  0  0  0  0  0  0  0  0
    0.5034   -6.5092   38.0142 C   0  0  0  0  0  0  0  0  0  0  0  0
    0.7940   -7.7597   38.5691 C   0  0  0  0  0  0  0  0  0  0  0  0
    0.4375   -8.0106   39.8849 C   0  0  0  0  0  0  0  0  0  0  0  0
   -0.1699   -7.1031   40.6779 N   0  0  0  0  0  0  0  0  0  0  0  0
   -0.4470   -5.9024   40.1269 C   0  0  0  0  0  0  0  0  0  0  0  0
   -0.1389   -5.5636   38.8182 C   0  0  0  0  0  0  0  0  0  0  0  0
   -0.3149   -7.0075   32.6863 N   0  0  0  0  0  0  0  0  0  0  0  0
   -1.4021   -7.8260   32.5285 C   0  0  0  0  0  0  0  0  0  0  0  0
   -1.6391   -8.0429   31.2551 N   0  0  0  0  0  0  0  0  0  0  0  0
   -0.6805   -7.3783   30.5318 N   0  0  0  0  0  0  0  0  0  0  0  0
    0.1224   -6.7707   31.3815 C   0  0  0  0  0  0  0  0  0  0  0  0
    1.3996   -1.5815   29.5432 C   0  0  0  0  0  0  0  0  0  0  0  0
    0.0697   -1.9823   29.6972 C   0  0  0  0  0  0  0  0  0  0  0  0
   -0.9167   -1.3155   28.9929 C   0  0  0  0  0  0  0  0  0  0  0  0
   -0.5815   -0.2081   28.2280 C   0  0  0  0  0  0  0  0  0  0  0  0
   -1.5959    0.4369   27.5962 O   0  0  0  0  0  0  0  0  0  0  0  0
    0.7344    0.2301   28.1215 C   0  0  0  0  0  0  0  0  0  0  0  0
    1.7428   -0.4768   28.7655 C   0  0  0  0  0  0  0  0  0  0  0  0
    3.6443   -3.5202   28.5991 H   0  0  0  0  0  0  0  0  0  0  0  0
    0.8769   -4.3087   29.0813 H   0  0  0  0  0  0  0  0  0  0  0  0
    2.0347   -4.9603   27.9450 H   0  0  0  0  0  0  0  0  0  0  0  0
    3.1528   -6.0684   29.9978 H   0  0  0  0  0  0  0  0  0  0  0  0
    1.7738   -6.8080   29.2398 H   0  0  0  0  0  0  0  0  0  0  0  0
    2.9682   -5.1780   32.2503 H   0  0  0  0  0  0  0  0  0  0  0  0
    2.0200   -5.3200   34.4306 H   0  0  0  0  0  0  0  0  0  0  0  0
    0.9585   -5.1091   36.4678 H   0  0  0  0  0  0  0  0  0  0  0  0
    1.8470   -6.6337   36.3737 H   0  0  0  0  0  0  0  0  0  0  0  0
    1.2770   -8.5411   37.9944 H   0  0  0  0  0  0  0  0  0  0  0  0
    0.6291   -8.9797   40.3404 H   0  0  0  0  0  0  0  0  0  0  0  0
   -0.9553   -5.1995   40.7813 H   0  0  0  0  0  0  0  0  0  0  0  0
   -0.4078   -4.5825   38.4405 H   0  0  0  0  0  0  0  0  0  0  0  0
   -1.9627   -8.2360   33.3549 H   0  0  0  0  0  0  0  0  0  0  0  0
   -0.2049   -2.8192   30.3329 H   0  0  0  0  0  0  0  0  0  0  0  0
   -1.9438   -1.6527   29.0306 H   0  0  0  0  0  0  0  0  0  0  0  0
   -1.2590    1.2365   27.1654 H   0  0  0  0  0  0  0  0  0  0  0  0
    0.9865    1.1060   27.5333 H   0  0  0  0  0  0  0  0  0  0  0  0
    2.7758   -0.1529   28.6676 H   0  0  0  0  0  0  0  0  0  0  0  0
  1  2  2  0
  2  3  2  0
  2  4  1  0
  4  5  1  0
  5  6  1  0
  6  7  1  0
  7  8  2  0
  8  9  1  0
  9 10  2  0
 10 11  1  0
 11 12  1  0
 12 13  1  0
 13 14  2  0
 14 15  1  0
 15 16  2  0
 16 17  1  0
 17 18  2  0
 10 19  1  0
 19 20  1  0
 20 21  2  0
 21 22  1  0
 22 23  2  0
  2 24  1  0
 24 25  2  0
 25 26  1  0
 26 27  2  0
 27 28  1  0
 27 29  1  0
 29 30  2  0
 23  7  1  0
 30 24  1  0
 18 13  1  0
 23 19  1  0
  4 31  1  0
  5 32  1  0
  5 33  1  0
  6 34  1  0
  6 35  1  0
  8 36  1  0
  9 37  1  0
 12 38  1  0
 12 39  1  0
 14 40  1  0
 15 41  1  0
 17 42  1  0
 18 43  1  0
 20 44  1  0
 25 45  1  0
 26 46  1  0
 28 47  1  0
 29 48  1  0
 30 49  1  0
M  END
>  <Energy>  (96) 
17.903452753949853

>  <compound_id>  (96) 
2389

>  <target_id>  (96) 
1

>  <reference_id>  (96) 
164

>  <inspiration_ids>  (96) 
[164, 180]

>  <energy_score>  (96) 
-46.35649951537209

>  <distance_score>  (96) 
0.7902752761867757

>  <path>  (96) 
/opt/xchem-fragalysis-2/maxwin/BulkDock/SCRATCH/505736/C2389-P164/C2389-P164.minimised.mol

>  <scratch_subdir>  (96) 
/opt/xchem-fragalysis-2/maxwin/BulkDock/SCRATCH/505736/C2389-P164

>  <fragmenstein_runtime>  (96) 
5.385998964309692

>  <fragmenstein_outcome>  (96) 
acceptable

>  <fragmenstein_mode>  (96) 
expansion

>  <fragmenstein_error>  (96) 


$$$$
C2389-P180
     RDKit          3D

 49 52  0  0  0  0  0  0  0  0999 V2000
    1.6153   -3.0905   31.6454 O   0  0  0  0  0  0  0  0  0  0  0  0
    2.3471   -2.4698   30.5689 S   0  0  0  0  0  0  0  0  0  0  0  0
    3.4917   -1.6218   30.8099 O   0  0  0  0  0  0  0  0  0  0  0  0
    2.8666   -3.6648   29.5279 N   0  0  0  0  0  0  0  0  0  0  0  0
    1.9268   -4.6638   29.0210 C   0  0  0  0  0  0  0  0  0  0  0  0
    2.1257   -5.9612   29.7769 C   0  0  0  0  0  0  0  0  0  0  0  0
    1.4347   -6.1100   31.1317 C   0  0  0  0  0  0  0  0  0  0  0  0
    2.0823   -5.7153   32.2530 C   0  0  0  0  0  0  0  0  0  0  0  0
    1.5378   -5.8600   33.5922 C   0  0  0  0  0  0  0  0  0  0  0  0
    0.3929   -6.5416   33.7840 C   0  0  0  0  0  0  0  0  0  0  0  0
   -0.3187   -6.8333   35.3488 S   0  0  0  0  0  0  0  0  0  0  0  0
    0.8951   -6.1972   36.5436 C   0  0  0  0  0  0  0  0  0  0  0  0
    0.5074   -6.5050   37.9656 C   0  0  0  0  0  0  0  0  0  0  0  0
    0.7660   -7.7618   38.5223 C   0  0  0  0  0  0  0  0  0  0  0  0
    0.3867   -8.0097   39.8323 C   0  0  0  0  0  0  0  0  0  0  0  0
   -0.2139   -7.0925   40.6188 N   0  0  0  0  0  0  0  0  0  0  0  0
   -0.4596   -5.8851   40.0672 C   0  0  0  0  0  0  0  0  0  0  0  0
   -0.1272   -5.5491   38.7633 C   0  0  0  0  0  0  0  0  0  0  0  0
   -0.2466   -7.0366   32.6311 N   0  0  0  0  0  0  0  0  0  0  0  0
   -1.3489   -7.8334   32.4709 C   0  0  0  0  0  0  0  0  0  0  0  0
   -1.5849   -8.0514   31.1973 N   0  0  0  0  0  0  0  0  0  0  0  0
   -0.6130   -7.4062   30.4754 N   0  0  0  0  0  0  0  0  0  0  0  0
    0.2006   -6.8162   31.3279 C   0  0  0  0  0  0  0  0  0  0  0  0
    1.1897   -1.6160   29.5634 C   0  0  0  0  0  0  0  0  0  0  0  0
   -0.1168   -2.1092   29.4781 C   0  0  0  0  0  0  0  0  0  0  0  0
   -0.9873   -1.5462   28.5639 C   0  0  0  0  0  0  0  0  0  0  0  0
   -0.5803   -0.4334   27.8444 C   0  0  0  0  0  0  0  0  0  0  0  0
   -1.4203    0.1190   26.9305 O   0  0  0  0  0  0  0  0  0  0  0  0
    0.6861    0.1190   27.9964 C   0  0  0  0  0  0  0  0  0  0  0  0
    1.5981   -0.4948   28.8433 C   0  0  0  0  0  0  0  0  0  0  0  0
    3.6807   -3.4094   28.9705 H   0  0  0  0  0  0  0  0  0  0  0  0
    0.8837   -4.3647   29.0575 H   0  0  0  0  0  0  0  0  0  0  0  0
    2.1721   -4.8145   27.9632 H   0  0  0  0  0  0  0  0  0  0  0  0
    3.2087   -6.0835   29.8977 H   0  0  0  0  0  0  0  0  0  0  0  0
    1.8005   -6.7892   29.1384 H   0  0  0  0  0  0  0  0  0  0  0  0
    3.0500   -5.2201   32.1894 H   0  0  0  0  0  0  0  0  0  0  0  0
    2.1144   -5.3926   34.3816 H   0  0  0  0  0  0  0  0  0  0  0  0
    0.9961   -5.1133   36.4175 H   0  0  0  0  0  0  0  0  0  0  0  0
    1.8774   -6.6433   36.3485 H   0  0  0  0  0  0  0  0  0  0  0  0
    1.2418   -8.5502   37.9518 H   0  0  0  0  0  0  0  0  0  0  0  0
    0.5522   -8.9838   40.2874 H   0  0  0  0  0  0  0  0  0  0  0  0
   -0.9608   -5.1734   40.7175 H   0  0  0  0  0  0  0  0  0  0  0  0
   -0.3699   -4.5614   38.3849 H   0  0  0  0  0  0  0  0  0  0  0  0
   -1.9195   -8.2294   33.2968 H   0  0  0  0  0  0  0  0  0  0  0  0
   -0.4472   -2.9552   30.0746 H   0  0  0  0  0  0  0  0  0  0  0  0
   -1.9678   -1.9774   28.4014 H   0  0  0  0  0  0  0  0  0  0  0  0
   -1.7964   -0.6292   26.4167 H   0  0  0  0  0  0  0  0  0  0  0  0
    0.9654    1.0012   27.4283 H   0  0  0  0  0  0  0  0  0  0  0  0
    2.6047   -0.0959   28.9355 H   0  0  0  0  0  0  0  0  0  0  0  0
  1  2  2  0
  2  3  2  0
  2  4  1  0
  4  5  1  0
  5  6  1  0
  6  7  1  0
  7  8  2  0
  8  9  1  0
  9 10  2  0
 10 11  1  0
 11 12  1  0
 12 13  1  0
 13 14  2  0
 14 15  1  0
 15 16  2  0
 16 17  1  0
 17 18  2  0
 10 19  1  0
 19 20  1  0
 20 21  2  0
 21 22  1  0
 22 23  2  0
  2 24  1  0
 24 25  2  0
 25 26  1  0
 26 27  2  0
 27 28  1  0
 27 29  1  0
 29 30  2  0
 23  7  1  0
 30 24  1  0
 18 13  1  0
 23 19  1  0
  4 31  1  0
  5 32  1  0
  5 33  1  0
  6 34  1  0
  6 35  1  0
  8 36  1  0
  9 37  1  0
 12 38  1  0
 12 39  1  0
 14 40  1  0
 15 41  1  0
 17 42  1  0
 18 43  1  0
 20 44  1  0
 25 45  1  0
 26 46  1  0
 28 47  1  0
 29 48  1  0
 30 49  1  0
M  END
>  <Energy>  (97) 
19.13751989829602

>  <compound_id>  (97) 
2389

>  <target_id>  (97) 
1

>  <reference_id>  (97) 
180

>  <inspiration_ids>  (97) 
[164, 180]

>  <energy_score>  (97) 
-45.12243237102341

>  <distance_score>  (97) 
0.7991212741324112

>  <path>  (97) 
/opt/xchem-fragalysis-2/maxwin/BulkDock/SCRATCH/505736/C2389-P180/C2389-P180.minimised.mol

>  <scratch_subdir>  (97) 
/opt/xchem-fragalysis-2/maxwin/BulkDock/SCRATCH/505736/C2389-P180

>  <fragmenstein_runtime>  (97) 
5.40527081489563

>  <fragmenstein_outcome>  (97) 
acceptable

>  <fragmenstein_mode>  (97) 
expansion

>  <fragmenstein_error>  (97) 


$$$$
C2391-P164
     RDKit          3D

 47 50  0  0  0  0  0  0  0  0999 V2000
   -0.5261   -1.7010   32.5320 O   0  0  0  0  0  0  0  0  0  0  0  0
   -0.8735   -2.3329   31.2801 S   0  0  0  0  0  0  0  0  0  0  0  0
   -1.8899   -3.3517   31.2091 O   0  0  0  0  0  0  0  0  0  0  0  0
    0.5551   -2.9227   30.6497 N   0  0  0  0  0  0  0  0  0  0  0  0
    0.6321   -4.3406   30.2680 C   0  0  0  0  0  0  0  0  0  0  0  0
    0.6620   -5.2262   31.4952 C   0  0  0  0  0  0  0  0  0  0  0  0
    1.3873   -4.8665   32.5810 C   0  0  0  0  0  0  0  0  0  0  0  0
    1.2294   -5.4996   33.8758 C   0  0  0  0  0  0  0  0  0  0  0  0
    0.2935   -6.4530   34.0492 C   0  0  0  0  0  0  0  0  0  0  0  0
   -0.0792   -7.1677   35.5870 S   0  0  0  0  0  0  0  0  0  0  0  0
    0.8106   -6.1460   36.7970 C   0  0  0  0  0  0  0  0  0  0  0  0
    0.4800   -6.5216   38.2152 C   0  0  0  0  0  0  0  0  0  0  0  0
    0.8210   -7.7756   38.7333 C   0  0  0  0  0  0  0  0  0  0  0  0
    0.4841   -8.0735   40.0438 C   0  0  0  0  0  0  0  0  0  0  0  0
   -0.1368   -7.2049   40.8696 N   0  0  0  0  0  0  0  0  0  0  0  0
   -0.4510   -5.9967   40.3581 C   0  0  0  0  0  0  0  0  0  0  0  0
   -0.1704   -5.6141   39.0561 C   0  0  0  0  0  0  0  0  0  0  0  0
   -0.3859   -6.8978   32.9006 N   0  0  0  0  0  0  0  0  0  0  0  0
   -1.3249   -7.8767   32.7068 C   0  0  0  0  0  0  0  0  0  0  0  0
   -1.5612   -8.0471   31.4259 N   0  0  0  0  0  0  0  0  0  0  0  0
   -0.8173   -7.1171   30.7442 N   0  0  0  0  0  0  0  0  0  0  0  0
   -0.1666   -6.3883   31.6278 C   0  0  0  0  0  0  0  0  0  0  0  0
   -1.1801   -1.1352   30.1651 N   0  0  0  0  0  0  0  0  0  0  0  0
   -1.2726   -1.4767   28.7206 C   0  0  0  0  0  0  0  0  0  0  0  0
   -0.7246   -0.2542   27.9915 C   0  0  0  0  0  0  0  0  0  0  0  0
   -0.7929    0.8677   29.0038 C   0  0  0  0  0  0  0  0  0  0  0  0
   -0.4788    0.1511   30.3025 C   0  0  0  0  0  0  0  0  0  0  0  0
    1.3680   -2.5006   31.0855 H   0  0  0  0  0  0  0  0  0  0  0  0
    1.5440   -4.4995   29.6816 H   0  0  0  0  0  0  0  0  0  0  0  0
   -0.2100   -4.5864   29.6133 H   0  0  0  0  0  0  0  0  0  0  0  0
    2.0317   -3.9914   32.5699 H   0  0  0  0  0  0  0  0  0  0  0  0
    1.8355   -5.0850   34.6723 H   0  0  0  0  0  0  0  0  0  0  0  0
    0.5576   -5.0930   36.6300 H   0  0  0  0  0  0  0  0  0  0  0  0
    1.8914   -6.2581   36.6541 H   0  0  0  0  0  0  0  0  0  0  0  0
    1.3189   -8.5279   38.1322 H   0  0  0  0  0  0  0  0  0  0  0  0
    0.7044   -9.0502   40.4689 H   0  0  0  0  0  0  0  0  0  0  0  0
   -0.9662   -5.3253   41.0395 H   0  0  0  0  0  0  0  0  0  0  0  0
   -0.4714   -4.6297   38.7131 H   0  0  0  0  0  0  0  0  0  0  0  0
   -1.7802   -8.4290   33.5126 H   0  0  0  0  0  0  0  0  0  0  0  0
   -2.3040   -1.6487   28.4273 H   0  0  0  0  0  0  0  0  0  0  0  0
   -0.6942   -2.3641   28.4556 H   0  0  0  0  0  0  0  0  0  0  0  0
    0.3217   -0.4288   27.7174 H   0  0  0  0  0  0  0  0  0  0  0  0
   -1.2872   -0.0233   27.0834 H   0  0  0  0  0  0  0  0  0  0  0  0
   -0.0858    1.6740   28.7895 H   0  0  0  0  0  0  0  0  0  0  0  0
   -1.7977    1.2986   29.0332 H   0  0  0  0  0  0  0  0  0  0  0  0
    0.6011   -0.0057   30.4006 H   0  0  0  0  0  0  0  0  0  0  0  0
   -0.8461    0.7117   31.1653 H   0  0  0  0  0  0  0  0  0  0  0  0
  1  2  2  0
  2  3  2  0
  2  4  1  0
  4  5  1  0
  5  6  1  0
  6  7  2  0
  7  8  1  0
  8  9  2  0
  9 10  1  0
 10 11  1  0
 11 12  1  0
 12 13  2  0
 13 14  1  0
 14 15  2  0
 15 16  1  0
 16 17  2  0
  9 18  1  0
 18 19  1  0
 19 20  2  0
 20 21  1  0
 21 22  2  0
  2 23  1  0
 23 24  1  0
 24 25  1  0
 25 26  1  0
 26 27  1  0
 22  6  1  0
 27 23  1  0
 17 12  1  0
 22 18  1  0
  4 28  1  0
  5 29  1  0
  5 30  1  0
  7 31  1  0
  8 32  1  0
 11 33  1  0
 11 34  1  0
 13 35  1  0
 14 36  1  0
 16 37  1  0
 17 38  1  0
 19 39  1  0
 24 40  1  0
 24 41  1  0
 25 42  1  0
 25 43  1  0
 26 44  1  0
 26 45  1  0
 27 46  1  0
 27 47  1  0
M  END
>  <Energy>  (98) 
-133.37500190442319

>  <compound_id>  (98) 
2391

>  <target_id>  (98) 
1

>  <reference_id>  (98) 
164

>  <inspiration_ids>  (98) 
[164, 187]

>  <energy_score>  (98) 
-39.64491422353457

>  <distance_score>  (98) 
0.5538330376937682

>  <path>  (98) 
/opt/xchem-fragalysis-2/maxwin/BulkDock/SCRATCH/505736/C2391-P164/C2391-P164.minimised.mol

>  <scratch_subdir>  (98) 
/opt/xchem-fragalysis-2/maxwin/BulkDock/SCRATCH/505736/C2391-P164

>  <fragmenstein_runtime>  (98) 
3.4321556091308594

>  <fragmenstein_outcome>  (98) 
acceptable

>  <fragmenstein_mode>  (98) 
expansion

>  <fragmenstein_error>  (98) 


$$$$
C2391-P187
     RDKit          3D

 47 50  0  0  0  0  0  0  0  0999 V2000
   -0.5759   -1.7012   32.4888 O   0  0  0  0  0  0  0  0  0  0  0  0
   -0.9360   -2.3555   31.2523 S   0  0  0  0  0  0  0  0  0  0  0  0
   -1.9276   -3.4007   31.2108 O   0  0  0  0  0  0  0  0  0  0  0  0
    0.4947   -2.9025   30.5870 N   0  0  0  0  0  0  0  0  0  0  0  0
    0.6107   -4.3199   30.2125 C   0  0  0  0  0  0  0  0  0  0  0  0
    0.6590   -5.1995   31.4420 C   0  0  0  0  0  0  0  0  0  0  0  0
    1.3684   -4.8194   32.5309 C   0  0  0  0  0  0  0  0  0  0  0  0
    1.2084   -5.4464   33.8282 C   0  0  0  0  0  0  0  0  0  0  0  0
    0.2916   -6.4191   33.9984 C   0  0  0  0  0  0  0  0  0  0  0  0
   -0.0907   -7.1182   35.5408 S   0  0  0  0  0  0  0  0  0  0  0  0
    0.7815   -6.0838   36.7487 C   0  0  0  0  0  0  0  0  0  0  0  0
    0.4840   -6.4710   38.1719 C   0  0  0  0  0  0  0  0  0  0  0  0
    0.8423   -7.7274   38.6697 C   0  0  0  0  0  0  0  0  0  0  0  0
    0.5510   -8.0321   39.9889 C   0  0  0  0  0  0  0  0  0  0  0  0
   -0.0462   -7.1750   40.8430 N   0  0  0  0  0  0  0  0  0  0  0  0
   -0.3839   -5.9659   40.3470 C   0  0  0  0  0  0  0  0  0  0  0  0
   -0.1434   -5.5723   39.0394 C   0  0  0  0  0  0  0  0  0  0  0  0
   -0.3637   -6.8885   32.8447 N   0  0  0  0  0  0  0  0  0  0  0  0
   -1.2788   -7.8874   32.6426 C   0  0  0  0  0  0  0  0  0  0  0  0
   -1.5058   -8.0605   31.3594 N   0  0  0  0  0  0  0  0  0  0  0  0
   -0.7784   -7.1152   30.6826 N   0  0  0  0  0  0  0  0  0  0  0  0
   -0.1456   -6.3777   31.5721 C   0  0  0  0  0  0  0  0  0  0  0  0
   -1.3114   -1.1783   30.1382 N   0  0  0  0  0  0  0  0  0  0  0  0
   -1.4838   -1.5493   28.7085 C   0  0  0  0  0  0  0  0  0  0  0  0
   -0.9441   -0.3577   27.9255 C   0  0  0  0  0  0  0  0  0  0  0  0
   -0.9960    0.7909   28.9064 C   0  0  0  0  0  0  0  0  0  0  0  0
   -0.6105    0.1136   30.2083 C   0  0  0  0  0  0  0  0  0  0  0  0
    1.3021   -2.4606   31.0139 H   0  0  0  0  0  0  0  0  0  0  0  0
    1.5277   -4.4577   29.6289 H   0  0  0  0  0  0  0  0  0  0  0  0
   -0.2241   -4.5889   29.5572 H   0  0  0  0  0  0  0  0  0  0  0  0
    1.9921   -3.9294   32.5211 H   0  0  0  0  0  0  0  0  0  0  0  0
    1.7915   -5.0093   34.6294 H   0  0  0  0  0  0  0  0  0  0  0  0
    0.4985   -5.0372   36.5887 H   0  0  0  0  0  0  0  0  0  0  0  0
    1.8636   -6.1655   36.5947 H   0  0  0  0  0  0  0  0  0  0  0  0
    1.3110   -8.4761   38.0405 H   0  0  0  0  0  0  0  0  0  0  0  0
    0.7918   -9.0079   40.3996 H   0  0  0  0  0  0  0  0  0  0  0  0
   -0.8820   -5.3005   41.0468 H   0  0  0  0  0  0  0  0  0  0  0  0
   -0.4577   -4.5868   38.7115 H   0  0  0  0  0  0  0  0  0  0  0  0
   -1.7283   -8.4460   33.4467 H   0  0  0  0  0  0  0  0  0  0  0  0
   -2.5366   -1.6906   28.4828 H   0  0  0  0  0  0  0  0  0  0  0  0
   -0.9488   -2.4608   28.4345 H   0  0  0  0  0  0  0  0  0  0  0  0
    0.0961   -0.5444   27.6366 H   0  0  0  0  0  0  0  0  0  0  0  0
   -1.5274   -0.1517   27.0248 H   0  0  0  0  0  0  0  0  0  0  0  0
   -0.3210    1.6091   28.6411 H   0  0  0  0  0  0  0  0  0  0  0  0
   -2.0152    1.1867   28.9608 H   0  0  0  0  0  0  0  0  0  0  0  0
    0.4740   -0.0350   30.2549 H   0  0  0  0  0  0  0  0  0  0  0  0
   -0.9356    0.6930   31.0750 H   0  0  0  0  0  0  0  0  0  0  0  0
  1  2  2  0
  2  3  2  0
  2  4  1  0
  4  5  1  0
  5  6  1  0
  6  7  2  0
  7  8  1  0
  8  9  2  0
  9 10  1  0
 10 11  1  0
 11 12  1  0
 12 13  2  0
 13 14  1  0
 14 15  2  0
 15 16  1  0
 16 17  2  0
  9 18  1  0
 18 19  1  0
 19 20  2  0
 20 21  1  0
 21 22  2  0
  2 23  1  0
 23 24  1  0
 24 25  1  0
 25 26  1  0
 26 27  1  0
 22  6  1  0
 27 23  1  0
 17 12  1  0
 22 18  1  0
  4 28  1  0
  5 29  1  0
  5 30  1  0
  7 31  1  0
  8 32  1  0
 11 33  1  0
 11 34  1  0
 13 35  1  0
 14 36  1  0
 16 37  1  0
 17 38  1  0
 19 39  1  0
 24 40  1  0
 24 41  1  0
 25 42  1  0
 25 43  1  0
 26 44  1  0
 26 45  1  0
 27 46  1  0
 27 47  1  0
M  END
>  <Energy>  (99) 
-134.01368133785888

>  <compound_id>  (99) 
2391

>  <target_id>  (99) 
1

>  <reference_id>  (99) 
187

>  <inspiration_ids>  (99) 
[164, 187]

>  <energy_score>  (99) 
-40.28359365697285

>  <distance_score>  (99) 
0.5177885087191367

>  <path>  (99) 
/opt/xchem-fragalysis-2/maxwin/BulkDock/SCRATCH/505736/C2391-P187/C2391-P187.minimised.mol

>  <scratch_subdir>  (99) 
/opt/xchem-fragalysis-2/maxwin/BulkDock/SCRATCH/505736/C2391-P187

>  <fragmenstein_runtime>  (99) 
3.372323513031006

>  <fragmenstein_outcome>  (99) 
acceptable

>  <fragmenstein_mode>  (99) 
expansion

>  <fragmenstein_error>  (99) 


$$$$
C2394-P164
     RDKit          3D

 41 44  0  0  0  0  0  0  0  0999 V2000
   -1.6673   -3.4731   31.1728 O   0  0  0  0  0  0  0  0  0  0  0  0
   -0.5449   -2.5724   31.3061 S   0  0  0  0  0  0  0  0  0  0  0  0
   -0.1587   -2.0022   32.5776 O   0  0  0  0  0  0  0  0  0  0  0  0
    0.8487   -3.2542   30.6390 N   0  0  0  0  0  0  0  0  0  0  0  0
    0.8437   -4.6703   30.2735 C   0  0  0  0  0  0  0  0  0  0  0  0
    0.7992   -5.5155   31.5185 C   0  0  0  0  0  0  0  0  0  0  0  0
    1.5525   -5.1852   32.5938 C   0  0  0  0  0  0  0  0  0  0  0  0
    1.3182   -5.7416   33.9096 C   0  0  0  0  0  0  0  0  0  0  0  0
    0.2970   -6.5980   34.1051 C   0  0  0  0  0  0  0  0  0  0  0  0
   -0.1588   -7.2045   35.6643 S   0  0  0  0  0  0  0  0  0  0  0  0
    0.8143   -6.2192   36.8408 C   0  0  0  0  0  0  0  0  0  0  0  0
    0.4793   -6.5550   38.2666 C   0  0  0  0  0  0  0  0  0  0  0  0
    0.8041   -7.8034   38.8079 C   0  0  0  0  0  0  0  0  0  0  0  0
    0.4590   -8.0737   40.1215 C   0  0  0  0  0  0  0  0  0  0  0  0
   -0.1562   -7.1835   40.9280 N   0  0  0  0  0  0  0  0  0  0  0  0
   -0.4560   -5.9814   40.3929 C   0  0  0  0  0  0  0  0  0  0  0  0
   -0.1661   -5.6252   39.0856 C   0  0  0  0  0  0  0  0  0  0  0  0
   -0.4077   -7.0269   32.9655 N   0  0  0  0  0  0  0  0  0  0  0  0
   -1.4218   -7.9301   32.7919 C   0  0  0  0  0  0  0  0  0  0  0  0
   -1.6757   -8.1067   31.5148 N   0  0  0  0  0  0  0  0  0  0  0  0
   -0.8622   -7.2566   30.8121 N   0  0  0  0  0  0  0  0  0  0  0  0
   -0.1388   -6.5813   31.6804 C   0  0  0  0  0  0  0  0  0  0  0  0
   -0.8516   -1.2252   30.2384 C   0  0  0  0  0  0  0  0  0  0  0  0
   -1.2175   -1.4189   28.9205 C   0  0  0  0  0  0  0  0  0  0  0  0
   -1.0528    0.0471   28.0541 S   0  0  0  0  0  0  0  0  0  0  0  0
   -0.5523    0.8256   29.4905 C   0  0  0  0  0  0  0  0  0  0  0  0
   -0.4822    0.0795   30.5706 N   0  0  0  0  0  0  0  0  0  0  0  0
    1.6918   -2.8599   31.0490 H   0  0  0  0  0  0  0  0  0  0  0  0
    1.7485   -4.8994   29.7003 H   0  0  0  0  0  0  0  0  0  0  0  0
   -0.0102   -4.8660   29.6180 H   0  0  0  0  0  0  0  0  0  0  0  0
    2.2771   -4.3755   32.5561 H   0  0  0  0  0  0  0  0  0  0  0  0
    1.9467   -5.3459   34.6982 H   0  0  0  0  0  0  0  0  0  0  0  0
    0.6302   -5.1545   36.6581 H   0  0  0  0  0  0  0  0  0  0  0  0
    1.8835   -6.4059   36.6891 H   0  0  0  0  0  0  0  0  0  0  0  0
    1.2947   -8.5721   38.2216 H   0  0  0  0  0  0  0  0  0  0  0  0
    0.6671   -9.0448   40.5650 H   0  0  0  0  0  0  0  0  0  0  0  0
   -0.9675   -5.2926   41.0596 H   0  0  0  0  0  0  0  0  0  0  0  0
   -0.4562   -4.6449   38.7218 H   0  0  0  0  0  0  0  0  0  0  0  0
   -1.9186   -8.4266   33.6095 H   0  0  0  0  0  0  0  0  0  0  0  0
   -1.5001   -2.3352   28.4217 H   0  0  0  0  0  0  0  0  0  0  0  0
   -0.2989    1.8780   29.4914 H   0  0  0  0  0  0  0  0  0  0  0  0
  1  2  2  0
  2  3  2  0
  2  4  1  0
  4  5  1  0
  5  6  1  0
  6  7  2  0
  7  8  1  0
  8  9  2  0
  9 10  1  0
 10 11  1  0
 11 12  1  0
 12 13  2  0
 13 14  1  0
 14 15  2  0
 15 16  1  0
 16 17  2  0
  9 18  1  0
 18 19  1  0
 19 20  2  0
 20 21  1  0
 21 22  2  0
  2 23  1  0
 23 24  2  0
 24 25  1  0
 25 26  1  0
 26 27  2  0
 22  6  1  0
 27 23  1  0
 17 12  1  0
 22 18  1  0
  4 28  1  0
  5 29  1  0
  5 30  1  0
  7 31  1  0
  8 32  1  0
 11 33  1  0
 11 34  1  0
 13 35  1  0
 14 36  1  0
 16 37  1  0
 17 38  1  0
 19 39  1  0
 24 40  1  0
 26 41  1  0
M  END
>  <Energy>  (100) 
46.738255014268461

>  <compound_id>  (100) 
2394

>  <target_id>  (100) 
1

>  <reference_id>  (100) 
164

>  <inspiration_ids>  (100) 
[164, 190]

>  <energy_score>  (100) 
-47.65720998203338

>  <distance_score>  (100) 
0.6030087027131391

>  <path>  (100) 
/opt/xchem-fragalysis-2/maxwin/BulkDock/SCRATCH/505736/C2394-P164/C2394-P164.minimised.mol

>  <scratch_subdir>  (100) 
/opt/xchem-fragalysis-2/maxwin/BulkDock/SCRATCH/505736/C2394-P164

>  <fragmenstein_runtime>  (100) 
2.8444559574127197

>  <fragmenstein_outcome>  (100) 
acceptable

>  <fragmenstein_mode>  (100) 
expansion

>  <fragmenstein_error>  (100) 


$$$$
C2394-P190
     RDKit          3D

 41 44  0  0  0  0  0  0  0  0999 V2000
   -1.7063   -3.5048   31.1281 O   0  0  0  0  0  0  0  0  0  0  0  0
   -0.6131   -2.5751   31.3128 S   0  0  0  0  0  0  0  0  0  0  0  0
   -0.3197   -1.9705   32.5920 O   0  0  0  0  0  0  0  0  0  0  0  0
    0.8324   -3.2252   30.6930 N   0  0  0  0  0  0  0  0  0  0  0  0
    0.7991   -4.6176   30.2150 C   0  0  0  0  0  0  0  0  0  0  0  0
    0.7879   -5.5158   31.4249 C   0  0  0  0  0  0  0  0  0  0  0  0
    1.5579   -5.1975   32.4930 C   0  0  0  0  0  0  0  0  0  0  0  0
    1.3629   -5.7835   33.8010 C   0  0  0  0  0  0  0  0  0  0  0  0
    0.3569   -6.6564   34.0007 C   0  0  0  0  0  0  0  0  0  0  0  0
   -0.0555   -7.2906   35.5640 S   0  0  0  0  0  0  0  0  0  0  0  0
    0.8420   -6.2243   36.7351 C   0  0  0  0  0  0  0  0  0  0  0  0
    0.5224   -6.5448   38.1695 C   0  0  0  0  0  0  0  0  0  0  0  0
    0.8717   -7.7779   38.7309 C   0  0  0  0  0  0  0  0  0  0  0  0
    0.5467   -8.0283   40.0542 C   0  0  0  0  0  0  0  0  0  0  0  0
   -0.0689   -7.1311   40.8531 N   0  0  0  0  0  0  0  0  0  0  0  0
   -0.3872   -5.9417   40.3009 C   0  0  0  0  0  0  0  0  0  0  0  0
   -0.1194   -5.6067   38.9829 C   0  0  0  0  0  0  0  0  0  0  0  0
   -0.3625   -7.0754   32.8643 N   0  0  0  0  0  0  0  0  0  0  0  0
   -1.3614   -7.9954   32.6915 C   0  0  0  0  0  0  0  0  0  0  0  0
   -1.6501   -8.1405   31.4170 N   0  0  0  0  0  0  0  0  0  0  0  0
   -0.8775   -7.2518   30.7155 N   0  0  0  0  0  0  0  0  0  0  0  0
   -0.1333   -6.5951   31.5818 C   0  0  0  0  0  0  0  0  0  0  0  0
   -0.9273   -1.2440   30.2203 C   0  0  0  0  0  0  0  0  0  0  0  0
   -1.3876   -1.4437   28.9338 C   0  0  0  0  0  0  0  0  0  0  0  0
   -1.2382    0.0080   28.0384 S   0  0  0  0  0  0  0  0  0  0  0  0
   -0.5932    0.7843   29.4169 C   0  0  0  0  0  0  0  0  0  0  0  0
   -0.4612    0.0426   30.4929 N   0  0  0  0  0  0  0  0  0  0  0  0
    1.2919   -2.5690   30.0603 H   0  0  0  0  0  0  0  0  0  0  0  0
    1.6955   -4.8140   29.6165 H   0  0  0  0  0  0  0  0  0  0  0  0
   -0.0631   -4.7717   29.5590 H   0  0  0  0  0  0  0  0  0  0  0  0
    2.2539   -4.3604   32.4518 H   0  0  0  0  0  0  0  0  0  0  0  0
    2.0034   -5.3926   34.5821 H   0  0  0  0  0  0  0  0  0  0  0  0
    0.5938   -5.1778   36.5253 H   0  0  0  0  0  0  0  0  0  0  0  0
    1.9220   -6.3481   36.5964 H   0  0  0  0  0  0  0  0  0  0  0  0
    1.3655   -8.5509   38.1527 H   0  0  0  0  0  0  0  0  0  0  0  0
    0.7730   -8.9885   40.5124 H   0  0  0  0  0  0  0  0  0  0  0  0
   -0.8952   -5.2452   40.9623 H   0  0  0  0  0  0  0  0  0  0  0  0
   -0.4229   -4.6352   38.6064 H   0  0  0  0  0  0  0  0  0  0  0  0
   -1.8273   -8.5206   33.5087 H   0  0  0  0  0  0  0  0  0  0  0  0
   -1.7495   -2.3524   28.4719 H   0  0  0  0  0  0  0  0  0  0  0  0
   -0.3021    1.8271   29.3892 H   0  0  0  0  0  0  0  0  0  0  0  0
  1  2  2  0
  2  3  2  0
  2  4  1  0
  4  5  1  0
  5  6  1  0
  6  7  2  0
  7  8  1  0
  8  9  2  0
  9 10  1  0
 10 11  1  0
 11 12  1  0
 12 13  2  0
 13 14  1  0
 14 15  2  0
 15 16  1  0
 16 17  2  0
  9 18  1  0
 18 19  1  0
 19 20  2  0
 20 21  1  0
 21 22  2  0
  2 23  1  0
 23 24  2  0
 24 25  1  0
 25 26  1  0
 26 27  2  0
 22  6  1  0
 27 23  1  0
 17 12  1  0
 22 18  1  0
  4 28  1  0
  5 29  1  0
  5 30  1  0
  7 31  1  0
  8 32  1  0
 11 33  1  0
 11 34  1  0
 13 35  1  0
 14 36  1  0
 16 37  1  0
 17 38  1  0
 19 39  1  0
 24 40  1  0
 26 41  1  0
M  END
>  <Energy>  (101) 
48.140241929893044

>  <compound_id>  (101) 
2394

>  <target_id>  (101) 
1

>  <reference_id>  (101) 
190

>  <inspiration_ids>  (101) 
[164, 190]

>  <energy_score>  (101) 
-46.25522306641017

>  <distance_score>  (101) 
0.5685847951425645

>  <path>  (101) 
/opt/xchem-fragalysis-2/maxwin/BulkDock/SCRATCH/505736/C2394-P190/C2394-P190.minimised.mol

>  <scratch_subdir>  (101) 
/opt/xchem-fragalysis-2/maxwin/BulkDock/SCRATCH/505736/C2394-P190

>  <fragmenstein_runtime>  (101) 
2.8571572303771973

>  <fragmenstein_outcome>  (101) 
acceptable

>  <fragmenstein_mode>  (101) 
expansion

>  <fragmenstein_error>  (101) 


$$$$
C2394-P164
     RDKit          2D

  0  0  0  0  0  0  0  0  0  0999 V2000
M  END
>  <compound_id>  (102) 
2394

>  <target_id>  (102) 
1

>  <reference_id>  (102) 
164

>  <inspiration_ids>  (102) 
[164, 194]

>  <energy_score>  (102) 
nan

>  <distance_score>  (102) 
nan

>  <path>  (102) 
/opt/xchem-fragalysis-2/maxwin/BulkDock/SCRATCH/505736/C2394-P164/C2394-P164.minimised.mol

>  <scratch_subdir>  (102) 
/opt/xchem-fragalysis-2/maxwin/BulkDock/SCRATCH/505736/C2394-P164

>  <fragmenstein_runtime>  (102) 
0.3282477855682373

>  <fragmenstein_outcome>  (102) 
crashed

>  <fragmenstein_mode>  (102) 
expansion

>  <fragmenstein_error>  (102) 
PoisonError: None has poison atoms [16, 15, 13, 12, 12, 13, 15, 16, 8, 17, 20, 5, 8, 17, 20, 5]

$$$$
C2396-P164
     RDKit          3D

 65 66  0  0  0  0  0  0  0  0999 V2000
   -0.3420    0.8759   30.5515 C   0  0  0  0  0  0  0  0  0  0  0  0
   -1.6098    0.0894   30.8158 C   0  0  0  0  0  0  0  0  0  0  0  0
   -1.4012   -1.1710   31.6364 C   0  0  0  0  0  0  0  0  0  0  0  0
   -1.2814   -2.5169   30.8546 C   0  0  0  0  0  0  0  0  0  0  0  0
   -0.2401   -2.2953   29.7922 C   0  0  0  0  0  0  0  0  0  0  0  0
   -0.5003   -1.7775   28.5771 C   0  0  0  0  0  0  0  0  0  0  0  0
    0.5807   -0.9254   28.0282 C   0  0  0  0  0  0  0  0  0  0  0  0
    1.7635   -1.2421   28.1314 O   0  0  0  0  0  0  0  0  0  0  0  0
    0.2173    0.2737   27.4928 O   0  0  0  0  0  0  0  0  0  0  0  0
   -1.1409    0.7090   27.2653 C   0  0  0  0  0  0  0  0  0  0  0  0
   -1.1355    2.1888   26.9195 C   0  0  0  0  0  0  0  0  0  0  0  0
   -0.9510   -3.5912   31.9553 C   0  0  0  0  0  0  0  0  0  0  0  0
   -1.2034   -5.0348   31.7200 N   0  0  0  0  0  0  0  0  0  0  0  0
   -1.1484   -5.7936   32.9882 C   0  0  0  0  0  0  0  0  0  0  0  0
   -0.0950   -6.7730   32.8951 N   0  0  0  0  0  0  0  0  0  0  0  0
    0.9807   -6.5297   33.8413 C   0  0  0  0  0  0  0  0  0  0  0  0
    1.6717   -5.1526   33.8684 C   0  0  0  0  0  0  0  0  0  0  0  0
    2.8415   -4.9220   32.9086 C   0  0  0  0  0  0  0  0  0  0  0  0
    2.6141   -4.7437   31.4262 C   0  0  0  0  0  0  0  0  0  0  0  0
    0.2243   -7.0644   35.4977 S   0  0  0  0  0  0  0  0  0  0  0  0
    1.2252   -6.2135   36.7507 C   0  0  0  0  0  0  0  0  0  0  0  0
    0.7520   -6.5515   38.1419 C   0  0  0  0  0  0  0  0  0  0  0  0
    0.9857   -7.8129   38.6975 C   0  0  0  0  0  0  0  0  0  0  0  0
    0.5076   -8.0850   39.9698 C   0  0  0  0  0  0  0  0  0  0  0  0
   -0.1619   -7.1872   40.7245 N   0  0  0  0  0  0  0  0  0  0  0  0
   -0.3809   -5.9754   40.1738 C   0  0  0  0  0  0  0  0  0  0  0  0
    0.0454   -5.6159   38.9045 C   0  0  0  0  0  0  0  0  0  0  0  0
    0.1332   -6.8981   31.4860 C   0  0  0  0  0  0  0  0  0  0  0  0
   -0.1641   -5.6037   30.9046 N   0  0  0  0  0  0  0  0  0  0  0  0
   -0.4918    1.6486   29.7978 H   0  0  0  0  0  0  0  0  0  0  0  0
    0.5110    0.2616   30.2697 H   0  0  0  0  0  0  0  0  0  0  0  0
   -0.0335    1.3851   31.4729 H   0  0  0  0  0  0  0  0  0  0  0  0
   -2.1599   -0.1480   29.9156 H   0  0  0  0  0  0  0  0  0  0  0  0
   -2.2644    0.7112   31.4139 H   0  0  0  0  0  0  0  0  0  0  0  0
   -0.5339   -1.0370   32.2981 H   0  0  0  0  0  0  0  0  0  0  0  0
   -2.2697   -1.2689   32.3040 H   0  0  0  0  0  0  0  0  0  0  0  0
   -2.2449   -2.7553   30.4032 H   0  0  0  0  0  0  0  0  0  0  0  0
    0.7856   -2.2651   30.1618 H   0  0  0  0  0  0  0  0  0  0  0  0
   -1.4978   -1.7028   28.1688 H   0  0  0  0  0  0  0  0  0  0  0  0
   -1.5917    0.1294   26.4597 H   0  0  0  0  0  0  0  0  0  0  0  0
   -1.7426    0.5777   28.1527 H   0  0  0  0  0  0  0  0  0  0  0  0
   -2.1501    2.5393   26.7087 H   0  0  0  0  0  0  0  0  0  0  0  0
   -0.7291    2.7775   27.7481 H   0  0  0  0  0  0  0  0  0  0  0  0
   -0.5025    2.3981   26.0531 H   0  0  0  0  0  0  0  0  0  0  0  0
   -1.5858   -3.3262   32.8123 H   0  0  0  0  0  0  0  0  0  0  0  0
    0.0740   -3.4165   32.2880 H   0  0  0  0  0  0  0  0  0  0  0  0
   -2.0418   -6.3985   33.0948 H   0  0  0  0  0  0  0  0  0  0  0  0
   -1.1081   -5.1501   33.8735 H   0  0  0  0  0  0  0  0  0  0  0  0
    1.7583   -7.2792   33.6919 H   0  0  0  0  0  0  0  0  0  0  0  0
    0.9648   -4.3252   33.8372 H   0  0  0  0  0  0  0  0  0  0  0  0
    2.1620   -5.0335   34.8373 H   0  0  0  0  0  0  0  0  0  0  0  0
    3.3432   -4.0058   33.2519 H   0  0  0  0  0  0  0  0  0  0  0  0
    3.5778   -5.7165   33.0646 H   0  0  0  0  0  0  0  0  0  0  0  0
    3.5379   -4.3619   30.9736 H   0  0  0  0  0  0  0  0  0  0  0  0
    1.8497   -4.0013   31.2153 H   0  0  0  0  0  0  0  0  0  0  0  0
    2.4159   -5.6789   30.9123 H   0  0  0  0  0  0  0  0  0  0  0  0
    2.2779   -6.4976   36.6474 H   0  0  0  0  0  0  0  0  0  0  0  0
    1.1385   -5.1312   36.6146 H   0  0  0  0  0  0  0  0  0  0  0  0
    1.5081   -8.5892   38.1503 H   0  0  0  0  0  0  0  0  0  0  0  0
    0.6476   -9.0655   40.4197 H   0  0  0  0  0  0  0  0  0  0  0  0
   -0.9417   -5.2810   40.7931 H   0  0  0  0  0  0  0  0  0  0  0  0
   -0.1858   -4.6274   38.5230 H   0  0  0  0  0  0  0  0  0  0  0  0
   -0.5602   -7.6450   31.0764 H   0  0  0  0  0  0  0  0  0  0  0  0
    1.1275   -7.2432   31.2385 H   0  0  0  0  0  0  0  0  0  0  0  0
   -0.4255   -5.6908   29.9205 H   0  0  0  0  0  0  0  0  0  0  0  0
  1  2  1  0
  2  3  1  0
  3  4  1  0
  4  5  1  0
  5  6  2  3
  6  7  1  0
  7  8  2  0
  7  9  1  0
  9 10  1  0
 10 11  1  0
  4 12  1  0
 12 13  1  0
 13 14  1  0
 14 15  1  0
 15 16  1  0
 16 17  1  0
 17 18  1  0
 18 19  1  0
 16 20  1  0
 20 21  1  0
 21 22  1  0
 22 23  2  0
 23 24  1  0
 24 25  2  0
 25 26  1  0
 26 27  2  0
 15 28  1  0
 28 29  1  0
 29 13  1  0
 27 22  1  0
  1 30  1  0
  1 31  1  0
  1 32  1  0
  2 33  1  0
  2 34  1  0
  3 35  1  0
  3 36  1  0
  4 37  1  0
  5 38  1  0
  6 39  1  0
 10 40  1  0
 10 41  1  0
 11 42  1  0
 11 43  1  0
 11 44  1  0
 12 45  1  0
 12 46  1  0
 14 47  1  0
 14 48  1  0
 16 49  1  0
 17 50  1  0
 17 51  1  0
 18 52  1  0
 18 53  1  0
 19 54  1  0
 19 55  1  0
 19 56  1  0
 21 57  1  0
 21 58  1  0
 23 59  1  0
 24 60  1  0
 26 61  1  0
 27 62  1  0
 28 63  1  0
 28 64  1  0
 29 65  1  0
M  END
>  <Energy>  (103) 
78.555867713768009

>  <compound_id>  (103) 
2396

>  <target_id>  (103) 
1

>  <reference_id>  (103) 
164

>  <inspiration_ids>  (103) 
[164, 198]

>  <energy_score>  (103) 
-155.79044607429216

>  <distance_score>  (103) 
2.0107112040121953

>  <path>  (103) 
/opt/xchem-fragalysis-2/maxwin/BulkDock/SCRATCH/505736/C2396-P164/C2396-P164.minimised.mol

>  <scratch_subdir>  (103) 
/opt/xchem-fragalysis-2/maxwin/BulkDock/SCRATCH/505736/C2396-P164

>  <fragmenstein_runtime>  (103) 
38.49201226234436

>  <fragmenstein_outcome>  (103) 
too moved

>  <fragmenstein_mode>  (103) 
expansion

>  <fragmenstein_error>  (103) 


$$$$
C2396-P198
     RDKit          3D

 65 66  0  0  0  0  0  0  0  0999 V2000
   -0.2961    0.9074   30.6492 C   0  0  0  0  0  0  0  0  0  0  0  0
   -1.6120    0.2634   31.0548 C   0  0  0  0  0  0  0  0  0  0  0  0
   -1.4602   -1.0837   31.7311 C   0  0  0  0  0  0  0  0  0  0  0  0
   -1.5563   -2.3732   30.8610 C   0  0  0  0  0  0  0  0  0  0  0  0
   -0.6040   -2.1957   29.7105 C   0  0  0  0  0  0  0  0  0  0  0  0
   -0.9533   -1.5718   28.5659 C   0  0  0  0  0  0  0  0  0  0  0  0
    0.1112   -0.8149   27.8669 C   0  0  0  0  0  0  0  0  0  0  0  0
    1.2880   -1.1636   27.9220 O   0  0  0  0  0  0  0  0  0  0  0  0
   -0.2517    0.3410   27.2431 O   0  0  0  0  0  0  0  0  0  0  0  0
   -1.3644    1.1836   27.6065 C   0  0  0  0  0  0  0  0  0  0  0  0
   -2.3595    1.3339   26.4859 C   0  0  0  0  0  0  0  0  0  0  0  0
   -1.3436   -3.5299   31.9126 C   0  0  0  0  0  0  0  0  0  0  0  0
   -1.3241   -4.9678   31.5663 N   0  0  0  0  0  0  0  0  0  0  0  0
   -1.2159   -5.8058   32.7851 C   0  0  0  0  0  0  0  0  0  0  0  0
   -0.0167   -6.6027   32.6893 N   0  0  0  0  0  0  0  0  0  0  0  0
    1.0009   -6.2353   33.6647 C   0  0  0  0  0  0  0  0  0  0  0  0
    1.4345   -4.7672   33.8426 C   0  0  0  0  0  0  0  0  0  0  0  0
    2.0149   -3.9719   32.6715 C   0  0  0  0  0  0  0  0  0  0  0  0
    3.1167   -4.6428   31.9088 C   0  0  0  0  0  0  0  0  0  0  0  0
    0.3593   -6.9740   35.2962 S   0  0  0  0  0  0  0  0  0  0  0  0
    1.3001   -6.0865   36.5769 C   0  0  0  0  0  0  0  0  0  0  0  0
    0.8207   -6.4351   37.9650 C   0  0  0  0  0  0  0  0  0  0  0  0
    1.0844   -7.6846   38.5326 C   0  0  0  0  0  0  0  0  0  0  0  0
    0.6108   -7.9583   39.8075 C   0  0  0  0  0  0  0  0  0  0  0  0
   -0.0821   -7.0722   40.5549 N   0  0  0  0  0  0  0  0  0  0  0  0
   -0.3271   -5.8700   39.9951 C   0  0  0  0  0  0  0  0  0  0  0  0
    0.0910   -5.5117   38.7221 C   0  0  0  0  0  0  0  0  0  0  0  0
    0.2835   -6.5809   31.2844 C   0  0  0  0  0  0  0  0  0  0  0  0
   -0.1638   -5.2977   30.7837 N   0  0  0  0  0  0  0  0  0  0  0  0
    0.2286    1.2408   31.5537 H   0  0  0  0  0  0  0  0  0  0  0  0
    0.3977    0.2411   30.1448 H   0  0  0  0  0  0  0  0  0  0  0  0
   -0.4409    1.8003   30.0410 H   0  0  0  0  0  0  0  0  0  0  0  0
   -2.3581    0.2126   30.2648 H   0  0  0  0  0  0  0  0  0  0  0  0
   -2.0370    0.8954   31.8350 H   0  0  0  0  0  0  0  0  0  0  0  0
   -0.5205   -1.0833   32.3019 H   0  0  0  0  0  0  0  0  0  0  0  0
   -2.2589   -1.1506   32.4848 H   0  0  0  0  0  0  0  0  0  0  0  0
   -2.5741   -2.4661   30.4729 H   0  0  0  0  0  0  0  0  0  0  0  0
    0.4520   -2.3058   29.9593 H   0  0  0  0  0  0  0  0  0  0  0  0
   -1.9797   -1.3897   28.2811 H   0  0  0  0  0  0  0  0  0  0  0  0
   -0.9546    2.1674   27.8549 H   0  0  0  0  0  0  0  0  0  0  0  0
   -1.8907    0.8095   28.4720 H   0  0  0  0  0  0  0  0  0  0  0  0
   -2.6978    0.3479   26.1688 H   0  0  0  0  0  0  0  0  0  0  0  0
   -3.2271    1.9162   26.8107 H   0  0  0  0  0  0  0  0  0  0  0  0
   -1.9132    1.8459   25.6306 H   0  0  0  0  0  0  0  0  0  0  0  0
   -2.1924   -3.4062   32.5967 H   0  0  0  0  0  0  0  0  0  0  0  0
   -0.4951   -3.2731   32.5441 H   0  0  0  0  0  0  0  0  0  0  0  0
   -2.0192   -6.5382   32.7890 H   0  0  0  0  0  0  0  0  0  0  0  0
   -1.3026   -5.2322   33.7118 H   0  0  0  0  0  0  0  0  0  0  0  0
    1.9014   -6.8214   33.4615 H   0  0  0  0  0  0  0  0  0  0  0  0
    0.6216   -4.1772   34.2821 H   0  0  0  0  0  0  0  0  0  0  0  0
    2.2415   -4.7575   34.5867 H   0  0  0  0  0  0  0  0  0  0  0  0
    1.2804   -3.6445   31.9474 H   0  0  0  0  0  0  0  0  0  0  0  0
    2.4164   -3.0397   33.0926 H   0  0  0  0  0  0  0  0  0  0  0  0
    3.6633   -3.9015   31.3148 H   0  0  0  0  0  0  0  0  0  0  0  0
    2.7410   -5.3772   31.2056 H   0  0  0  0  0  0  0  0  0  0  0  0
    3.8331   -5.1016   32.5957 H   0  0  0  0  0  0  0  0  0  0  0  0
    2.3642   -6.3293   36.4866 H   0  0  0  0  0  0  0  0  0  0  0  0
    1.1836   -5.0076   36.4438 H   0  0  0  0  0  0  0  0  0  0  0  0
    1.6313   -8.4497   37.9941 H   0  0  0  0  0  0  0  0  0  0  0  0
    0.7757   -8.9308   40.2661 H   0  0  0  0  0  0  0  0  0  0  0  0
   -0.9024   -5.1826   40.6090 H   0  0  0  0  0  0  0  0  0  0  0  0
   -0.1606   -4.5302   38.3348 H   0  0  0  0  0  0  0  0  0  0  0  0
    1.3262   -6.7554   31.0646 H   0  0  0  0  0  0  0  0  0  0  0  0
   -0.2757   -7.3837   30.7852 H   0  0  0  0  0  0  0  0  0  0  0  0
   -0.3671   -5.3496   29.7820 H   0  0  0  0  0  0  0  0  0  0  0  0
  1  2  1  0
  2  3  1  0
  3  4  1  0
  4  5  1  0
  5  6  2  3
  6  7  1  0
  7  8  2  0
  7  9  1  0
  9 10  1  0
 10 11  1  0
  4 12  1  0
 12 13  1  0
 13 14  1  0
 14 15  1  0
 15 16  1  0
 16 17  1  0
 17 18  1  0
 18 19  1  0
 16 20  1  0
 20 21  1  0
 21 22  1  0
 22 23  2  0
 23 24  1  0
 24 25  2  0
 25 26  1  0
 26 27  2  0
 15 28  1  0
 28 29  1  0
 29 13  1  0
 27 22  1  0
  1 30  1  0
  1 31  1  0
  1 32  1  0
  2 33  1  0
  2 34  1  0
  3 35  1  0
  3 36  1  0
  4 37  1  0
  5 38  1  0
  6 39  1  0
 10 40  1  0
 10 41  1  0
 11 42  1  0
 11 43  1  0
 11 44  1  0
 12 45  1  0
 12 46  1  0
 14 47  1  0
 14 48  1  0
 16 49  1  0
 17 50  1  0
 17 51  1  0
 18 52  1  0
 18 53  1  0
 19 54  1  0
 19 55  1  0
 19 56  1  0
 21 57  1  0
 21 58  1  0
 23 59  1  0
 24 60  1  0
 26 61  1  0
 27 62  1  0
 28 63  1  0
 28 64  1  0
 29 65  1  0
M  END
>  <Energy>  (104) 
75.67185486342251

>  <compound_id>  (104) 
2396

>  <target_id>  (104) 
1

>  <reference_id>  (104) 
198

>  <inspiration_ids>  (104) 
[164, 198]

>  <energy_score>  (104) 
-158.6744589246352

>  <distance_score>  (104) 
2.243605740486229

>  <path>  (104) 
/opt/xchem-fragalysis-2/maxwin/BulkDock/SCRATCH/505736/C2396-P198/C2396-P198.minimised.mol

>  <scratch_subdir>  (104) 
/opt/xchem-fragalysis-2/maxwin/BulkDock/SCRATCH/505736/C2396-P198

>  <fragmenstein_runtime>  (104) 
39.350772857666016

>  <fragmenstein_outcome>  (104) 
too moved

>  <fragmenstein_mode>  (104) 
expansion

>  <fragmenstein_error>  (104) 


$$$$
C2397-P164
     RDKit          3D

 48 51  0  0  0  0  0  0  0  0999 V2000
   -1.1240   -3.1164   31.5795 O   0  0  0  0  0  0  0  0  0  0  0  0
    0.0419   -2.6898   30.8445 S   0  0  0  0  0  0  0  0  0  0  0  0
    1.2813   -2.3622   31.5104 O   0  0  0  0  0  0  0  0  0  0  0  0
    0.3493   -3.8523   29.6852 N   0  0  0  0  0  0  0  0  0  0  0  0
    1.3127   -4.9144   30.0334 C   0  0  0  0  0  0  0  0  0  0  0  0
    0.9876   -5.5866   31.3453 C   0  0  0  0  0  0  0  0  0  0  0  0
    1.6838   -5.2255   32.4484 C   0  0  0  0  0  0  0  0  0  0  0  0
    1.3446   -5.6813   33.7812 C   0  0  0  0  0  0  0  0  0  0  0  0
    0.3080   -6.5215   33.9643 C   0  0  0  0  0  0  0  0  0  0  0  0
   -0.2152   -7.0836   35.5253 S   0  0  0  0  0  0  0  0  0  0  0  0
    0.8183   -6.1769   36.7139 C   0  0  0  0  0  0  0  0  0  0  0  0
    0.4797   -6.5203   38.1387 C   0  0  0  0  0  0  0  0  0  0  0  0
    0.8052   -7.7701   38.6763 C   0  0  0  0  0  0  0  0  0  0  0  0
    0.4636   -8.0445   39.9909 C   0  0  0  0  0  0  0  0  0  0  0  0
   -0.1529   -7.1584   40.8010 N   0  0  0  0  0  0  0  0  0  0  0  0
   -0.4572   -5.9562   40.2685 C   0  0  0  0  0  0  0  0  0  0  0  0
   -0.1693   -5.5958   38.9614 C   0  0  0  0  0  0  0  0  0  0  0  0
   -0.3569   -6.9752   32.8085 N   0  0  0  0  0  0  0  0  0  0  0  0
   -1.3736   -7.8768   32.6297 C   0  0  0  0  0  0  0  0  0  0  0  0
   -1.6062   -8.0694   31.3509 N   0  0  0  0  0  0  0  0  0  0  0  0
   -0.7569   -7.2525   30.6477 N   0  0  0  0  0  0  0  0  0  0  0  0
   -0.0302   -6.5781   31.5155 C   0  0  0  0  0  0  0  0  0  0  0  0
   -0.3894   -1.3788   29.8951 N   0  0  0  0  0  0  0  0  0  0  0  0
   -0.7914   -0.1752   30.7009 C   0  0  0  0  0  0  0  0  0  0  0  0
    0.4178    0.7495   30.8916 C   0  0  0  0  0  0  0  0  0  0  0  0
    0.9155    1.2895   29.6585 O   0  0  0  0  0  0  0  0  0  0  0  0
    0.5736    0.4849   28.5203 C   0  0  0  0  0  0  0  0  0  0  0  0
    0.5949   -1.0143   28.8263 C   0  0  0  0  0  0  0  0  0  0  0  0
   -0.5347   -4.2025   29.3045 H   0  0  0  0  0  0  0  0  0  0  0  0
    2.3183   -4.4755   30.0451 H   0  0  0  0  0  0  0  0  0  0  0  0
    1.3318   -5.6612   29.2373 H   0  0  0  0  0  0  0  0  0  0  0  0
    2.4751   -4.4784   32.3911 H   0  0  0  0  0  0  0  0  0  0  0  0
    1.9411   -5.2562   34.5792 H   0  0  0  0  0  0  0  0  0  0  0  0
    1.8748   -6.4160   36.5465 H   0  0  0  0  0  0  0  0  0  0  0  0
    0.6910   -5.1002   36.5546 H   0  0  0  0  0  0  0  0  0  0  0  0
    1.2976   -8.5350   38.0871 H   0  0  0  0  0  0  0  0  0  0  0  0
    0.6757   -9.0160   40.4319 H   0  0  0  0  0  0  0  0  0  0  0  0
   -0.9710   -5.2705   40.9367 H   0  0  0  0  0  0  0  0  0  0  0  0
   -0.4622   -4.6154   38.6000 H   0  0  0  0  0  0  0  0  0  0  0  0
   -1.8861   -8.3626   33.4454 H   0  0  0  0  0  0  0  0  0  0  0  0
   -1.2029   -0.4697   31.6718 H   0  0  0  0  0  0  0  0  0  0  0  0
   -1.5948    0.3361   30.1584 H   0  0  0  0  0  0  0  0  0  0  0  0
    1.2471    0.2222   31.3739 H   0  0  0  0  0  0  0  0  0  0  0  0
    0.1674    1.5901   31.5427 H   0  0  0  0  0  0  0  0  0  0  0  0
   -0.4105    0.8014   28.1556 H   0  0  0  0  0  0  0  0  0  0  0  0
    1.3031    0.7156   27.7392 H   0  0  0  0  0  0  0  0  0  0  0  0
    0.3356   -1.5776   27.9298 H   0  0  0  0  0  0  0  0  0  0  0  0
    1.6099   -1.2900   29.1340 H   0  0  0  0  0  0  0  0  0  0  0  0
  1  2  2  0
  2  3  2  0
  2  4  1  0
  4  5  1  0
  5  6  1  0
  6  7  2  0
  7  8  1  0
  8  9  2  0
  9 10  1  0
 10 11  1  0
 11 12  1  0
 12 13  2  0
 13 14  1  0
 14 15  2  0
 15 16  1  0
 16 17  2  0
  9 18  1  0
 18 19  1  0
 19 20  2  0
 20 21  1  0
 21 22  2  0
  2 23  1  0
 23 24  1  0
 24 25  1  0
 25 26  1  0
 26 27  1  0
 27 28  1  0
 22  6  1  0
 28 23  1  0
 17 12  1  0
 22 18  1  0
  4 29  1  0
  5 30  1  0
  5 31  1  0
  7 32  1  0
  8 33  1  0
 11 34  1  0
 11 35  1  0
 13 36  1  0
 14 37  1  0
 16 38  1  0
 17 39  1  0
 19 40  1  0
 24 41  1  0
 24 42  1  0
 25 43  1  0
 25 44  1  0
 27 45  1  0
 27 46  1  0
 28 47  1  0
 28 48  1  0
M  END
>  <Energy>  (105) 
-91.115242998845162

>  <compound_id>  (105) 
2397

>  <target_id>  (105) 
1

>  <reference_id>  (105) 
164

>  <inspiration_ids>  (105) 
[164, 199]

>  <energy_score>  (105) 
-62.54761604230056

>  <distance_score>  (105) 
0.5274939998213295

>  <path>  (105) 
/opt/xchem-fragalysis-2/maxwin/BulkDock/SCRATCH/505736/C2397-P164/C2397-P164.minimised.mol

>  <scratch_subdir>  (105) 
/opt/xchem-fragalysis-2/maxwin/BulkDock/SCRATCH/505736/C2397-P164

>  <fragmenstein_runtime>  (105) 
3.198073625564575

>  <fragmenstein_outcome>  (105) 
acceptable

>  <fragmenstein_mode>  (105) 
expansion

>  <fragmenstein_error>  (105) 


$$$$
C2397-P199
     RDKit          3D

 48 51  0  0  0  0  0  0  0  0999 V2000
   -1.0665   -2.9192   31.4524 O   0  0  0  0  0  0  0  0  0  0  0  0
    0.1295   -2.5635   30.7305 S   0  0  0  0  0  0  0  0  0  0  0  0
    1.3571   -2.2144   31.4060 O   0  0  0  0  0  0  0  0  0  0  0  0
    0.4342   -3.8065   29.6554 N   0  0  0  0  0  0  0  0  0  0  0  0
    1.3800   -4.8472   30.0777 C   0  0  0  0  0  0  0  0  0  0  0  0
    0.9942   -5.4824   31.3887 C   0  0  0  0  0  0  0  0  0  0  0  0
    1.5897   -5.0468   32.5221 C   0  0  0  0  0  0  0  0  0  0  0  0
    1.2153   -5.5124   33.8393 C   0  0  0  0  0  0  0  0  0  0  0  0
    0.2648   -6.4560   33.9803 C   0  0  0  0  0  0  0  0  0  0  0  0
   -0.2764   -7.0456   35.5235 S   0  0  0  0  0  0  0  0  0  0  0  0
    0.7690   -6.1850   36.7322 C   0  0  0  0  0  0  0  0  0  0  0  0
    0.4744   -6.5844   38.1514 C   0  0  0  0  0  0  0  0  0  0  0  0
    0.7930   -7.8618   38.6211 C   0  0  0  0  0  0  0  0  0  0  0  0
    0.5086   -8.1784   39.9394 C   0  0  0  0  0  0  0  0  0  0  0  0
   -0.0502   -7.3162   40.8150 N   0  0  0  0  0  0  0  0  0  0  0  0
   -0.3578   -6.0895   40.3419 C   0  0  0  0  0  0  0  0  0  0  0  0
   -0.1187   -5.6819   39.0388 C   0  0  0  0  0  0  0  0  0  0  0  0
   -0.2958   -6.9776   32.7982 N   0  0  0  0  0  0  0  0  0  0  0  0
   -1.2110   -7.9715   32.5697 C   0  0  0  0  0  0  0  0  0  0  0  0
   -1.3721   -8.1751   31.2799 N   0  0  0  0  0  0  0  0  0  0  0  0
   -0.5657   -7.2854   30.6176 N   0  0  0  0  0  0  0  0  0  0  0  0
    0.0503   -6.5489   31.5199 C   0  0  0  0  0  0  0  0  0  0  0  0
   -0.2324   -1.3305   29.6596 N   0  0  0  0  0  0  0  0  0  0  0  0
   -0.7417   -0.0851   30.3202 C   0  0  0  0  0  0  0  0  0  0  0  0
    0.4044    0.9164   30.5184 C   0  0  0  0  0  0  0  0  0  0  0  0
    0.9982    1.3557   29.2872 O   0  0  0  0  0  0  0  0  0  0  0  0
    0.7851    0.4362   28.2076 C   0  0  0  0  0  0  0  0  0  0  0  0
    0.8401   -1.0225   28.6615 C   0  0  0  0  0  0  0  0  0  0  0  0
   -0.4547   -4.1642   29.2986 H   0  0  0  0  0  0  0  0  0  0  0  0
    2.3854   -4.4102   30.1229 H   0  0  0  0  0  0  0  0  0  0  0  0
    1.4347   -5.6168   29.3037 H   0  0  0  0  0  0  0  0  0  0  0  0
    2.3360   -4.2535   32.4983 H   0  0  0  0  0  0  0  0  0  0  0  0
    1.7178   -5.0168   34.6607 H   0  0  0  0  0  0  0  0  0  0  0  0
    1.8250   -6.3994   36.5300 H   0  0  0  0  0  0  0  0  0  0  0  0
    0.6223   -5.1044   36.6245 H   0  0  0  0  0  0  0  0  0  0  0  0
    1.2236   -8.6171   37.9722 H   0  0  0  0  0  0  0  0  0  0  0  0
    0.7200   -9.1698   40.3295 H   0  0  0  0  0  0  0  0  0  0  0  0
   -0.8312   -5.4217   41.0562 H   0  0  0  0  0  0  0  0  0  0  0  0
   -0.4105   -4.6838   38.7286 H   0  0  0  0  0  0  0  0  0  0  0  0
   -1.7148   -8.4998   33.3628 H   0  0  0  0  0  0  0  0  0  0  0  0
   -1.2176   -0.3102   31.2801 H   0  0  0  0  0  0  0  0  0  0  0  0
   -1.5194    0.3333   29.6707 H   0  0  0  0  0  0  0  0  0  0  0  0
    1.2019    0.4793   31.1289 H   0  0  0  0  0  0  0  0  0  0  0  0
    0.0549    1.8077   31.0463 H   0  0  0  0  0  0  0  0  0  0  0  0
   -0.1773    0.6706   27.7385 H   0  0  0  0  0  0  0  0  0  0  0  0
    1.5689    0.6255   27.4682 H   0  0  0  0  0  0  0  0  0  0  0  0
    0.7048   -1.6844   27.8065 H   0  0  0  0  0  0  0  0  0  0  0  0
    1.8289   -1.2112   29.0945 H   0  0  0  0  0  0  0  0  0  0  0  0
  1  2  2  0
  2  3  2  0
  2  4  1  0
  4  5  1  0
  5  6  1  0
  6  7  2  0
  7  8  1  0
  8  9  2  0
  9 10  1  0
 10 11  1  0
 11 12  1  0
 12 13  2  0
 13 14  1  0
 14 15  2  0
 15 16  1  0
 16 17  2  0
  9 18  1  0
 18 19  1  0
 19 20  2  0
 20 21  1  0
 21 22  2  0
  2 23  1  0
 23 24  1  0
 24 25  1  0
 25 26  1  0
 26 27  1  0
 27 28  1  0
 22  6  1  0
 28 23  1  0
 17 12  1  0
 22 18  1  0
  4 29  1  0
  5 30  1  0
  5 31  1  0
  7 32  1  0
  8 33  1  0
 11 34  1  0
 11 35  1  0
 13 36  1  0
 14 37  1  0
 16 38  1  0
 17 39  1  0
 19 40  1  0
 24 41  1  0
 24 42  1  0
 25 43  1  0
 25 44  1  0
 27 45  1  0
 27 46  1  0
 28 47  1  0
 28 48  1  0
M  END
>  <Energy>  (106) 
-91.810102609330357

>  <compound_id>  (106) 
2397

>  <target_id>  (106) 
1

>  <reference_id>  (106) 
199

>  <inspiration_ids>  (106) 
[164, 199]

>  <energy_score>  (106) 
-63.24247565278459

>  <distance_score>  (106) 
0.5859922232478831

>  <path>  (106) 
/opt/xchem-fragalysis-2/maxwin/BulkDock/SCRATCH/505736/C2397-P199/C2397-P199.minimised.mol

>  <scratch_subdir>  (106) 
/opt/xchem-fragalysis-2/maxwin/BulkDock/SCRATCH/505736/C2397-P199

>  <fragmenstein_runtime>  (106) 
3.1332027912139893

>  <fragmenstein_outcome>  (106) 
acceptable

>  <fragmenstein_mode>  (106) 
expansion

>  <fragmenstein_error>  (106) 


$$$$
C2363-P164
     RDKit          3D

 57 61  0  0  0  0  0  0  0  0999 V2000
    2.6197   -2.6533   29.8102 C   0  0  0  0  0  0  0  0  0  0  0  0
    2.3022   -3.2015   28.4363 C   0  0  0  0  0  0  0  0  0  0  0  0
    2.7162   -4.8987   28.0938 S   0  0  0  0  0  0  0  0  0  0  0  0
    2.5574   -5.1316   26.6742 O   0  0  0  0  0  0  0  0  0  0  0  0
    2.1856   -5.8553   29.1779 N   0  0  0  0  0  0  0  0  0  0  0  0
    2.0857   -5.4274   30.5891 N   0  0  0  0  0  0  0  0  0  0  0  0
    1.1385   -5.9282   31.4505 C   0  0  0  0  0  0  0  0  0  0  0  0
    1.1408   -5.5355   32.8754 C   0  0  0  0  0  0  0  0  0  0  0  0
    0.2469   -6.0916   33.7253 C   0  0  0  0  0  0  0  0  0  0  0  0
    0.0124   -5.5301   35.3478 S   0  0  0  0  0  0  0  0  0  0  0  0
    1.2310   -6.4240   36.3420 C   0  0  0  0  0  0  0  0  0  0  0  0
    0.8065   -6.5837   37.7858 C   0  0  0  0  0  0  0  0  0  0  0  0
    0.9304   -7.8260   38.4163 C   0  0  0  0  0  0  0  0  0  0  0  0
    0.5300   -7.9674   39.7376 C   0  0  0  0  0  0  0  0  0  0  0  0
    0.0344   -6.9555   40.4766 N   0  0  0  0  0  0  0  0  0  0  0  0
   -0.0575   -5.7540   39.8712 C   0  0  0  0  0  0  0  0  0  0  0  0
    0.3208   -5.5191   38.5555 C   0  0  0  0  0  0  0  0  0  0  0  0
   -0.6474   -7.0289   33.2001 N   0  0  0  0  0  0  0  0  0  0  0  0
   -1.6039   -7.8054   33.7742 C   0  0  0  0  0  0  0  0  0  0  0  0
   -2.2129   -8.5165   32.8532 N   0  0  0  0  0  0  0  0  0  0  0  0
   -1.6637   -8.2315   31.6409 N   0  0  0  0  0  0  0  0  0  0  0  0
   -0.7170   -7.3598   31.8631 C   0  0  0  0  0  0  0  0  0  0  0  0
    0.1961   -6.7697   30.9944 C   0  0  0  0  0  0  0  0  0  0  0  0
    4.3667   -5.1806   28.2824 N   0  0  0  0  0  0  0  0  0  0  0  0
    5.3190   -4.4101   27.4944 C   0  0  0  0  0  0  0  0  0  0  0  0
    5.6989   -3.1182   28.1740 C   0  0  0  0  0  0  0  0  0  0  0  0
    6.2231   -3.1428   29.4901 C   0  0  0  0  0  0  0  0  0  0  0  0
    6.5986   -1.9641   30.1414 C   0  0  0  0  0  0  0  0  0  0  0  0
    6.4510   -0.7802   29.4545 C   0  0  0  0  0  0  0  0  0  0  0  0
    5.9645   -0.7436   28.1694 C   0  0  0  0  0  0  0  0  0  0  0  0
    5.5863   -1.8899   27.4998 C   0  0  0  0  0  0  0  0  0  0  0  0
    5.9145    0.5218   27.6725 O   0  0  0  0  0  0  0  0  0  0  0  0
    6.4118    1.2767   28.7965 C   0  0  0  0  0  0  0  0  0  0  0  0
    6.7596    0.4554   29.9302 O   0  0  0  0  0  0  0  0  0  0  0  0
    1.8258   -2.8959   30.5226 H   0  0  0  0  0  0  0  0  0  0  0  0
    2.6726   -1.5600   29.7715 H   0  0  0  0  0  0  0  0  0  0  0  0
    3.5620   -3.0267   30.2106 H   0  0  0  0  0  0  0  0  0  0  0  0
    1.2285   -3.0975   28.2547 H   0  0  0  0  0  0  0  0  0  0  0  0
    2.8252   -2.6047   27.6869 H   0  0  0  0  0  0  0  0  0  0  0  0
    2.9400   -5.0907   31.0392 H   0  0  0  0  0  0  0  0  0  0  0  0
    1.8077   -4.7389   33.1911 H   0  0  0  0  0  0  0  0  0  0  0  0
    2.1885   -5.8935   36.3053 H   0  0  0  0  0  0  0  0  0  0  0  0
    1.3841   -7.4122   35.8930 H   0  0  0  0  0  0  0  0  0  0  0  0
    1.3239   -8.6915   37.9002 H   0  0  0  0  0  0  0  0  0  0  0  0
    0.5955   -8.9300   40.2409 H   0  0  0  0  0  0  0  0  0  0  0  0
   -0.4612   -4.9555   40.4878 H   0  0  0  0  0  0  0  0  0  0  0  0
    0.2159   -4.5187   38.1478 H   0  0  0  0  0  0  0  0  0  0  0  0
   -1.8123   -7.8319   34.8336 H   0  0  0  0  0  0  0  0  0  0  0  0
    0.1494   -7.0737   29.9618 H   0  0  0  0  0  0  0  0  0  0  0  0
    4.4553   -6.1423   27.9766 H   0  0  0  0  0  0  0  0  0  0  0  0
    6.2395   -4.9965   27.3797 H   0  0  0  0  0  0  0  0  0  0  0  0
    4.9512   -4.2298   26.4777 H   0  0  0  0  0  0  0  0  0  0  0  0
    6.3474   -4.0929   30.0065 H   0  0  0  0  0  0  0  0  0  0  0  0
    7.0014   -1.9780   31.1477 H   0  0  0  0  0  0  0  0  0  0  0  0
    5.2164   -1.8241   26.4803 H   0  0  0  0  0  0  0  0  0  0  0  0
    5.6423    1.9937   29.1055 H   0  0  0  0  0  0  0  0  0  0  0  0
    7.3022    1.8316   28.4791 H   0  0  0  0  0  0  0  0  0  0  0  0
  1  2  1  0
  2  3  1  0
  3  4  2  0
  3  5  2  0
  5  6  1  0
  6  7  1  0
  7  8  1  0
  8  9  2  0
  9 10  1  0
 10 11  1  0
 11 12  1  0
 12 13  2  0
 13 14  1  0
 14 15  2  0
 15 16  1  0
 16 17  2  0
  9 18  1  0
 18 19  1  0
 19 20  2  0
 20 21  1  0
 21 22  2  0
 22 23  1  0
  3 24  1  0
 24 25  1  0
 25 26  1  0
 26 27  2  0
 27 28  1  0
 28 29  2  0
 29 30  1  0
 30 31  2  0
 30 32  1  0
 32 33  1  0
 33 34  1  0
 23  7  2  0
 31 26  1  0
 17 12  1  0
 22 18  1  0
 34 29  1  0
  1 35  1  0
  1 36  1  0
  1 37  1  0
  2 38  1  0
  2 39  1  0
  6 40  1  0
  8 41  1  0
 11 42  1  0
 11 43  1  0
 13 44  1  0
 14 45  1  0
 16 46  1  0
 17 47  1  0
 19 48  1  0
 23 49  1  0
 24 50  1  0
 25 51  1  0
 25 52  1  0
 27 53  1  0
 28 54  1  0
 31 55  1  0
 33 56  1  0
 33 57  1  0
M  END
>  <Energy>  (107) 
17.767616204092672

>  <compound_id>  (107) 
2363

>  <target_id>  (107) 
1

>  <reference_id>  (107) 
164

>  <inspiration_ids>  (107) 
[164, 200]

>  <energy_score>  (107) 
-80.16193324050472

>  <distance_score>  (107) 
1.2938222430942754

>  <path>  (107) 
/opt/xchem-fragalysis-2/maxwin/BulkDock/SCRATCH/505736/C2363-P164/C2363-P164.minimised.mol

>  <scratch_subdir>  (107) 
/opt/xchem-fragalysis-2/maxwin/BulkDock/SCRATCH/505736/C2363-P164

>  <fragmenstein_runtime>  (107) 
4.017936706542969

>  <fragmenstein_outcome>  (107) 
too moved

>  <fragmenstein_mode>  (107) 
expansion

>  <fragmenstein_error>  (107) 


$$$$
C2363-P200
     RDKit          3D

 57 61  0  0  0  0  0  0  0  0999 V2000
    2.0970   -3.0481   27.7148 C   0  0  0  0  0  0  0  0  0  0  0  0
    2.7804   -4.1113   26.8825 C   0  0  0  0  0  0  0  0  0  0  0  0
    3.0374   -5.6550   27.7082 S   0  0  0  0  0  0  0  0  0  0  0  0
    3.3718   -6.6643   26.7240 O   0  0  0  0  0  0  0  0  0  0  0  0
    1.9946   -5.9038   28.8074 N   0  0  0  0  0  0  0  0  0  0  0  0
    2.0126   -5.3401   30.1896 N   0  0  0  0  0  0  0  0  0  0  0  0
    1.1200   -5.8098   31.1424 C   0  0  0  0  0  0  0  0  0  0  0  0
    1.1530   -5.3284   32.5445 C   0  0  0  0  0  0  0  0  0  0  0  0
    0.3469   -5.8960   33.4777 C   0  0  0  0  0  0  0  0  0  0  0  0
    0.2157   -5.2871   35.1019 S   0  0  0  0  0  0  0  0  0  0  0  0
    1.2063   -6.4168   36.1152 C   0  0  0  0  0  0  0  0  0  0  0  0
    0.7779   -6.5291   37.5658 C   0  0  0  0  0  0  0  0  0  0  0  0
    1.0093   -7.7314   38.2474 C   0  0  0  0  0  0  0  0  0  0  0  0
    0.6325   -7.8563   39.5782 C   0  0  0  0  0  0  0  0  0  0  0  0
    0.0625   -6.8610   40.2844 N   0  0  0  0  0  0  0  0  0  0  0  0
   -0.1258   -5.6939   39.6351 C   0  0  0  0  0  0  0  0  0  0  0  0
    0.2192   -5.4797   38.3048 C   0  0  0  0  0  0  0  0  0  0  0  0
   -0.5297   -6.9001   33.0505 N   0  0  0  0  0  0  0  0  0  0  0  0
   -1.4373   -7.6741   33.7059 C   0  0  0  0  0  0  0  0  0  0  0  0
   -2.0615   -8.4529   32.8509 N   0  0  0  0  0  0  0  0  0  0  0  0
   -1.5634   -8.2263   31.6054 N   0  0  0  0  0  0  0  0  0  0  0  0
   -0.6370   -7.3149   31.7400 C   0  0  0  0  0  0  0  0  0  0  0  0
    0.2244   -6.7545   30.8009 C   0  0  0  0  0  0  0  0  0  0  0  0
    4.4761   -5.6330   28.5877 N   0  0  0  0  0  0  0  0  0  0  0  0
    5.5784   -4.7816   28.1663 C   0  0  0  0  0  0  0  0  0  0  0  0
    5.4786   -3.3834   28.7272 C   0  0  0  0  0  0  0  0  0  0  0  0
    5.2296   -3.1839   30.1067 C   0  0  0  0  0  0  0  0  0  0  0  0
    5.1490   -1.8974   30.6485 C   0  0  0  0  0  0  0  0  0  0  0  0
    5.3359   -0.8321   29.7960 C   0  0  0  0  0  0  0  0  0  0  0  0
    5.6068   -1.0120   28.4609 C   0  0  0  0  0  0  0  0  0  0  0  0
    5.6939   -2.2686   27.8987 C   0  0  0  0  0  0  0  0  0  0  0  0
    5.7743    0.1660   27.8026 O   0  0  0  0  0  0  0  0  0  0  0  0
    5.5491    1.1086   28.8709 C   0  0  0  0  0  0  0  0  0  0  0  0
    5.2906    0.4810   30.1449 O   0  0  0  0  0  0  0  0  0  0  0  0
    1.0762   -3.3442   27.9760 H   0  0  0  0  0  0  0  0  0  0  0  0
    2.0415   -2.1077   27.1585 H   0  0  0  0  0  0  0  0  0  0  0  0
    2.6316   -2.8495   28.6453 H   0  0  0  0  0  0  0  0  0  0  0  0
    2.1897   -4.3569   26.0052 H   0  0  0  0  0  0  0  0  0  0  0  0
    3.7324   -3.7547   26.4887 H   0  0  0  0  0  0  0  0  0  0  0  0
    2.2824   -4.3610   30.3048 H   0  0  0  0  0  0  0  0  0  0  0  0
    1.8114   -4.4996   32.7852 H   0  0  0  0  0  0  0  0  0  0  0  0
    2.2508   -6.0884   36.0820 H   0  0  0  0  0  0  0  0  0  0  0  0
    1.1572   -7.4112   35.6564 H   0  0  0  0  0  0  0  0  0  0  0  0
    1.4725   -8.5807   37.7607 H   0  0  0  0  0  0  0  0  0  0  0  0
    0.7805   -8.7906   40.1156 H   0  0  0  0  0  0  0  0  0  0  0  0
   -0.5835   -4.9050   40.2262 H   0  0  0  0  0  0  0  0  0  0  0  0
    0.0352   -4.5022   37.8708 H   0  0  0  0  0  0  0  0  0  0  0  0
   -1.6092   -7.6430   34.7716 H   0  0  0  0  0  0  0  0  0  0  0  0
    0.1628   -7.1515   29.7993 H   0  0  0  0  0  0  0  0  0  0  0  0
    4.8024   -6.5865   28.4797 H   0  0  0  0  0  0  0  0  0  0  0  0
    6.5137   -5.2079   28.5512 H   0  0  0  0  0  0  0  0  0  0  0  0
    5.6802   -4.7782   27.0748 H   0  0  0  0  0  0  0  0  0  0  0  0
    5.1065   -4.0419   30.7650 H   0  0  0  0  0  0  0  0  0  0  0  0
    4.9580   -1.7376   31.7035 H   0  0  0  0  0  0  0  0  0  0  0  0
    5.9172   -2.3735   26.8409 H   0  0  0  0  0  0  0  0  0  0  0  0
    4.6906    1.7380   28.6090 H   0  0  0  0  0  0  0  0  0  0  0  0
    6.4356    1.7458   28.9683 H   0  0  0  0  0  0  0  0  0  0  0  0
  1  2  1  0
  2  3  1  0
  3  4  2  0
  3  5  2  0
  5  6  1  0
  6  7  1  0
  7  8  1  0
  8  9  2  0
  9 10  1  0
 10 11  1  0
 11 12  1  0
 12 13  2  0
 13 14  1  0
 14 15  2  0
 15 16  1  0
 16 17  2  0
  9 18  1  0
 18 19  1  0
 19 20  2  0
 20 21  1  0
 21 22  2  0
 22 23  1  0
  3 24  1  0
 24 25  1  0
 25 26  1  0
 26 27  2  0
 27 28  1  0
 28 29  2  0
 29 30  1  0
 30 31  2  0
 30 32  1  0
 32 33  1  0
 33 34  1  0
 23  7  2  0
 31 26  1  0
 17 12  1  0
 22 18  1  0
 34 29  1  0
  1 35  1  0
  1 36  1  0
  1 37  1  0
  2 38  1  0
  2 39  1  0
  6 40  1  0
  8 41  1  0
 11 42  1  0
 11 43  1  0
 13 44  1  0
 14 45  1  0
 16 46  1  0
 17 47  1  0
 19 48  1  0
 23 49  1  0
 24 50  1  0
 25 51  1  0
 25 52  1  0
 27 53  1  0
 28 54  1  0
 31 55  1  0
 33 56  1  0
 33 57  1  0
M  END
>  <Energy>  (108) 
19.935724810455284

>  <compound_id>  (108) 
2363

>  <target_id>  (108) 
1

>  <reference_id>  (108) 
200

>  <inspiration_ids>  (108) 
[164, 200]

>  <energy_score>  (108) 
-77.99382463414565

>  <distance_score>  (108) 
1.274200748569956

>  <path>  (108) 
/opt/xchem-fragalysis-2/maxwin/BulkDock/SCRATCH/505736/C2363-P200/C2363-P200.minimised.mol

>  <scratch_subdir>  (108) 
/opt/xchem-fragalysis-2/maxwin/BulkDock/SCRATCH/505736/C2363-P200

>  <fragmenstein_runtime>  (108) 
3.624160051345825

>  <fragmenstein_outcome>  (108) 
too moved

>  <fragmenstein_mode>  (108) 
expansion

>  <fragmenstein_error>  (108) 


$$$$
C2400-P165
     RDKit          3D

 58 61  0  0  0  0  0  0  0  0999 V2000
   -0.8252    2.0412   28.0413 C   0  0  0  0  0  0  0  0  0  0  0  0
   -1.2303    0.7137   28.3816 O   0  0  0  0  0  0  0  0  0  0  0  0
   -0.1969   -0.1332   28.6646 C   0  0  0  0  0  0  0  0  0  0  0  0
    0.9724    0.2139   28.7779 O   0  0  0  0  0  0  0  0  0  0  0  0
   -0.7357   -1.5469   28.8642 C   0  0  0  0  0  0  0  0  0  0  0  0
    0.2693   -2.5397   28.5962 N   0  0  0  0  0  0  0  0  0  0  0  0
    1.5145   -2.9766   29.4301 C   0  0  0  0  0  0  0  0  0  0  0  0
    1.8791   -2.6406   30.5279 N   0  0  0  0  0  0  0  0  0  0  0  0
    1.1209   -1.9009   31.5137 C   0  0  0  0  0  0  0  0  0  0  0  0
    1.5115   -2.4291   32.9107 C   0  0  0  0  0  0  0  0  0  0  0  0
    0.6904   -3.5373   33.4223 N   0  0  0  0  0  0  0  0  0  0  0  0
    0.5320   -4.8436   32.9804 C   0  0  0  0  0  0  0  0  0  0  0  0
    1.1412   -5.2278   31.7176 C   0  0  0  0  0  0  0  0  0  0  0  0
    0.6707   -6.2058   30.9319 C   0  0  0  0  0  0  0  0  0  0  0  0
   -0.3452   -7.0303   31.4429 C   0  0  0  0  0  0  0  0  0  0  0  0
   -1.0521   -7.9962   30.9054 N   0  0  0  0  0  0  0  0  0  0  0  0
   -1.7811   -8.5637   31.9118 N   0  0  0  0  0  0  0  0  0  0  0  0
   -1.4920   -7.9357   33.0327 C   0  0  0  0  0  0  0  0  0  0  0  0
   -0.6386   -6.8935   32.7936 N   0  0  0  0  0  0  0  0  0  0  0  0
   -0.1789   -5.8242   33.6010 C   0  0  0  0  0  0  0  0  0  0  0  0
   -0.6474   -5.8027   35.2787 S   0  0  0  0  0  0  0  0  0  0  0  0
    0.6568   -4.9192   36.1835 C   0  0  0  0  0  0  0  0  0  0  0  0
    2.0919   -5.1846   35.8014 C   0  0  0  0  0  0  0  0  0  0  0  0
    2.9458   -4.1126   35.5064 C   0  0  0  0  0  0  0  0  0  0  0  0
    4.2460   -4.3701   35.1048 C   0  0  0  0  0  0  0  0  0  0  0  0
    4.7654   -5.6102   35.0234 N   0  0  0  0  0  0  0  0  0  0  0  0
    3.9537   -6.6265   35.3866 C   0  0  0  0  0  0  0  0  0  0  0  0
    2.6288   -6.4713   35.7693 C   0  0  0  0  0  0  0  0  0  0  0  0
    2.3126   -3.9787   28.7005 C   0  0  0  0  0  0  0  0  0  0  0  0
    3.4886   -4.6590   29.1100 C   0  0  0  0  0  0  0  0  0  0  0  0
    3.7813   -5.5262   28.0863 C   0  0  0  0  0  0  0  0  0  0  0  0
    4.9025   -6.4383   27.8009 C   0  0  0  0  0  0  0  0  0  0  0  0
    2.8339   -5.4093   27.1281 O   0  0  0  0  0  0  0  0  0  0  0  0
    1.9240   -4.4558   27.5107 N   0  0  0  0  0  0  0  0  0  0  0  0
   -0.2662    2.4994   28.8627 H   0  0  0  0  0  0  0  0  0  0  0  0
   -0.2252    2.0300   27.1261 H   0  0  0  0  0  0  0  0  0  0  0  0
   -1.7252    2.6344   27.8588 H   0  0  0  0  0  0  0  0  0  0  0  0
   -1.5444   -1.6955   28.1397 H   0  0  0  0  0  0  0  0  0  0  0  0
   -1.1772   -1.6438   29.8557 H   0  0  0  0  0  0  0  0  0  0  0  0
    0.2270   -3.0845   27.7449 H   0  0  0  0  0  0  0  0  0  0  0  0
    0.0424   -2.0080   31.4017 H   0  0  0  0  0  0  0  0  0  0  0  0
    1.3859   -0.8410   31.4435 H   0  0  0  0  0  0  0  0  0  0  0  0
    2.5694   -2.7147   32.9314 H   0  0  0  0  0  0  0  0  0  0  0  0
    1.3973   -1.6044   33.6242 H   0  0  0  0  0  0  0  0  0  0  0  0
   -0.0324   -3.2554   34.0822 H   0  0  0  0  0  0  0  0  0  0  0  0
    2.0550   -4.7181   31.4592 H   0  0  0  0  0  0  0  0  0  0  0  0
    1.1233   -6.4491   29.9818 H   0  0  0  0  0  0  0  0  0  0  0  0
   -1.8904   -8.1689   34.0093 H   0  0  0  0  0  0  0  0  0  0  0  0
    0.5438   -5.1819   37.2424 H   0  0  0  0  0  0  0  0  0  0  0  0
    0.4362   -3.8477   36.1296 H   0  0  0  0  0  0  0  0  0  0  0  0
    2.5995   -3.0861   35.5618 H   0  0  0  0  0  0  0  0  0  0  0  0
    4.9223   -3.5625   34.8408 H   0  0  0  0  0  0  0  0  0  0  0  0
    4.4136   -7.6104   35.3618 H   0  0  0  0  0  0  0  0  0  0  0  0
    2.0339   -7.3377   36.0410 H   0  0  0  0  0  0  0  0  0  0  0  0
    4.0583   -4.4910   30.0126 H   0  0  0  0  0  0  0  0  0  0  0  0
    5.2892   -6.8827   28.7222 H   0  0  0  0  0  0  0  0  0  0  0  0
    5.7183   -5.8941   27.3153 H   0  0  0  0  0  0  0  0  0  0  0  0
    4.5913   -7.2490   27.1350 H   0  0  0  0  0  0  0  0  0  0  0  0
  1  2  1  0
  2  3  1  0
  3  4  2  0
  3  5  1  0
  5  6  1  0
  6  7  1  0
  7  8  2  3
  8  9  1  0
  9 10  1  0
 10 11  1  0
 11 12  1  0
 12 13  1  0
 13 14  2  0
 14 15  1  0
 15 16  2  0
 16 17  1  0
 17 18  2  0
 18 19  1  0
 19 20  1  0
 20 21  1  0
 21 22  1  0
 22 23  1  0
 23 24  2  0
 24 25  1  0
 25 26  2  0
 26 27  1  0
 27 28  2  0
  7 29  1  0
 29 30  1  0
 30 31  2  0
 31 32  1  0
 31 33  1  0
 33 34  1  0
 20 12  2  0
 28 23  1  0
 34 29  2  0
 19 15  1  0
  1 35  1  0
  1 36  1  0
  1 37  1  0
  5 38  1  0
  5 39  1  0
  6 40  1  0
  9 41  1  0
  9 42  1  0
 10 43  1  0
 10 44  1  0
 11 45  1  0
 13 46  1  0
 14 47  1  0
 18 48  1  0
 22 49  1  0
 22 50  1  0
 24 51  1  0
 25 52  1  0
 27 53  1  0
 28 54  1  0
 30 55  1  0
 32 56  1  0
 32 57  1  0
 32 58  1  0
M  END
>  <Energy>  (109) 
136.72477291242362

>  <compound_id>  (109) 
2400

>  <target_id>  (109) 
1

>  <reference_id>  (109) 
165

>  <inspiration_ids>  (109) 
[165, 40]

>  <energy_score>  (109) 
-25.26128171774576

>  <distance_score>  (109) 
1.5041474864869036

>  <path>  (109) 
/opt/xchem-fragalysis-2/maxwin/BulkDock/SCRATCH/505736/C2400-P165/C2400-P165.minimised.mol

>  <scratch_subdir>  (109) 
/opt/xchem-fragalysis-2/maxwin/BulkDock/SCRATCH/505736/C2400-P165

>  <fragmenstein_runtime>  (109) 
5.475133180618286

>  <fragmenstein_outcome>  (109) 
too moved

>  <fragmenstein_mode>  (109) 
expansion

>  <fragmenstein_error>  (109) 


$$$$
C2400-P40
     RDKit          3D

 58 61  0  0  0  0  0  0  0  0999 V2000
    3.1871    1.6990   27.5778 C   0  0  0  0  0  0  0  0  0  0  0  0
    2.2254    0.6493   27.6826 O   0  0  0  0  0  0  0  0  0  0  0  0
    1.5038    0.6617   28.8388 C   0  0  0  0  0  0  0  0  0  0  0  0
    1.6255    1.4838   29.7406 O   0  0  0  0  0  0  0  0  0  0  0  0
    0.4839   -0.4641   28.8611 C   0  0  0  0  0  0  0  0  0  0  0  0
    1.0752   -1.7412   28.5699 N   0  0  0  0  0  0  0  0  0  0  0  0
    1.8979   -2.7191   29.4829 C   0  0  0  0  0  0  0  0  0  0  0  0
    2.1564   -2.6624   30.6620 N   0  0  0  0  0  0  0  0  0  0  0  0
    1.7072   -1.6905   31.6433 C   0  0  0  0  0  0  0  0  0  0  0  0
    0.2948   -1.9818   32.2160 C   0  0  0  0  0  0  0  0  0  0  0  0
    0.1741   -3.2177   33.0161 N   0  0  0  0  0  0  0  0  0  0  0  0
   -0.0360   -4.5185   32.5586 C   0  0  0  0  0  0  0  0  0  0  0  0
   -0.0260   -4.7124   31.1097 C   0  0  0  0  0  0  0  0  0  0  0  0
   -0.1856   -5.8832   30.4879 C   0  0  0  0  0  0  0  0  0  0  0  0
   -0.6179   -6.9740   31.2443 C   0  0  0  0  0  0  0  0  0  0  0  0
   -1.1305   -8.1244   30.8790 N   0  0  0  0  0  0  0  0  0  0  0  0
   -1.5692   -8.7411   32.0130 N   0  0  0  0  0  0  0  0  0  0  0  0
   -1.2690   -7.9683   33.0360 C   0  0  0  0  0  0  0  0  0  0  0  0
   -0.6847   -6.8052   32.6168 N   0  0  0  0  0  0  0  0  0  0  0  0
   -0.3280   -5.6207   33.3114 C   0  0  0  0  0  0  0  0  0  0  0  0
   -0.4513   -5.6848   35.0569 S   0  0  0  0  0  0  0  0  0  0  0  0
    0.8041   -4.6024   35.7634 C   0  0  0  0  0  0  0  0  0  0  0  0
    2.2287   -4.9110   35.4019 C   0  0  0  0  0  0  0  0  0  0  0  0
    2.9676   -4.0135   34.6261 C   0  0  0  0  0  0  0  0  0  0  0  0
    4.2924   -4.2950   34.3456 C   0  0  0  0  0  0  0  0  0  0  0  0
    4.9291   -5.3935   34.7967 N   0  0  0  0  0  0  0  0  0  0  0  0
    4.2107   -6.2387   35.5667 C   0  0  0  0  0  0  0  0  0  0  0  0
    2.8739   -6.0521   35.8827 C   0  0  0  0  0  0  0  0  0  0  0  0
    2.2978   -3.9078   28.7169 C   0  0  0  0  0  0  0  0  0  0  0  0
    3.2224   -4.9271   29.0523 C   0  0  0  0  0  0  0  0  0  0  0  0
    3.2693   -5.7314   27.9406 C   0  0  0  0  0  0  0  0  0  0  0  0
    4.1523   -6.8157   27.4890 C   0  0  0  0  0  0  0  0  0  0  0  0
    2.3309   -5.3227   27.0552 O   0  0  0  0  0  0  0  0  0  0  0  0
    1.7109   -4.1977   27.5439 N   0  0  0  0  0  0  0  0  0  0  0  0
    2.6924    2.6750   27.5993 H   0  0  0  0  0  0  0  0  0  0  0  0
    3.9275    1.6210   28.3799 H   0  0  0  0  0  0  0  0  0  0  0  0
    3.7017    1.5924   26.6189 H   0  0  0  0  0  0  0  0  0  0  0  0
   -0.2753   -0.2316   28.1060 H   0  0  0  0  0  0  0  0  0  0  0  0
   -0.0302   -0.4691   29.8231 H   0  0  0  0  0  0  0  0  0  0  0  0
    0.9867   -2.1430   27.6350 H   0  0  0  0  0  0  0  0  0  0  0  0
    1.7439   -0.6765   31.2422 H   0  0  0  0  0  0  0  0  0  0  0  0
    2.4283   -1.6932   32.4674 H   0  0  0  0  0  0  0  0  0  0  0  0
    0.0478   -1.1488   32.8860 H   0  0  0  0  0  0  0  0  0  0  0  0
   -0.4693   -1.9665   31.4325 H   0  0  0  0  0  0  0  0  0  0  0  0
   -0.3602   -3.0596   33.8700 H   0  0  0  0  0  0  0  0  0  0  0  0
    0.0509   -3.8486   30.4744 H   0  0  0  0  0  0  0  0  0  0  0  0
   -0.1428   -5.9523   29.4138 H   0  0  0  0  0  0  0  0  0  0  0  0
   -1.4893   -8.1701   34.0723 H   0  0  0  0  0  0  0  0  0  0  0  0
    0.7175   -4.6987   36.8535 H   0  0  0  0  0  0  0  0  0  0  0  0
    0.5673   -3.5521   35.5752 H   0  0  0  0  0  0  0  0  0  0  0  0
    2.5272   -3.0996   34.2483 H   0  0  0  0  0  0  0  0  0  0  0  0
    4.8925   -3.6223   33.7396 H   0  0  0  0  0  0  0  0  0  0  0  0
    4.7574   -7.1025   35.9353 H   0  0  0  0  0  0  0  0  0  0  0  0
    2.3601   -6.7705   36.5134 H   0  0  0  0  0  0  0  0  0  0  0  0
    3.8511   -4.9706   29.9295 H   0  0  0  0  0  0  0  0  0  0  0  0
    4.6930   -7.2588   28.3291 H   0  0  0  0  0  0  0  0  0  0  0  0
    4.8915   -6.4300   26.7798 H   0  0  0  0  0  0  0  0  0  0  0  0
    3.5718   -7.5901   26.9814 H   0  0  0  0  0  0  0  0  0  0  0  0
  1  2  1  0
  2  3  1  0
  3  4  2  0
  3  5  1  0
  5  6  1  0
  6  7  1  0
  7  8  2  3
  8  9  1  0
  9 10  1  0
 10 11  1  0
 11 12  1  0
 12 13  1  0
 13 14  2  0
 14 15  1  0
 15 16  2  0
 16 17  1  0
 17 18  2  0
 18 19  1  0
 19 20  1  0
 20 21  1  0
 21 22  1  0
 22 23  1  0
 23 24  2  0
 24 25  1  0
 25 26  2  0
 26 27  1  0
 27 28  2  0
  7 29  1  0
 29 30  1  0
 30 31  2  0
 31 32  1  0
 31 33  1  0
 33 34  1  0
 20 12  2  0
 28 23  1  0
 34 29  2  0
 19 15  1  0
  1 35  1  0
  1 36  1  0
  1 37  1  0
  5 38  1  0
  5 39  1  0
  6 40  1  0
  9 41  1  0
  9 42  1  0
 10 43  1  0
 10 44  1  0
 11 45  1  0
 13 46  1  0
 14 47  1  0
 18 48  1  0
 22 49  1  0
 22 50  1  0
 24 51  1  0
 25 52  1  0
 27 53  1  0
 28 54  1  0
 30 55  1  0
 32 56  1  0
 32 57  1  0
 32 58  1  0
M  END
>  <Energy>  (110) 
131.81675379386769

>  <compound_id>  (110) 
2400

>  <target_id>  (110) 
1

>  <reference_id>  (110) 
40

>  <inspiration_ids>  (110) 
[165, 40]

>  <energy_score>  (110) 
-30.16930083630041

>  <distance_score>  (110) 
1.3545083894477354

>  <path>  (110) 
/opt/xchem-fragalysis-2/maxwin/BulkDock/SCRATCH/505736/C2400-P40/C2400-P40.minimised.mol

>  <scratch_subdir>  (110) 
/opt/xchem-fragalysis-2/maxwin/BulkDock/SCRATCH/505736/C2400-P40

>  <fragmenstein_runtime>  (110) 
4.924140691757202

>  <fragmenstein_outcome>  (110) 
too moved

>  <fragmenstein_mode>  (110) 
expansion

>  <fragmenstein_error>  (110) 


$$$$
C2401-P165
     RDKit          3D

 40 43  0  0  0  0  0  0  0  0999 V2000
    4.4960   -4.2370   33.4195 C   0  0  0  0  0  0  0  0  0  0  0  0
    4.0001   -5.0495   34.5920 C   0  0  0  0  0  0  0  0  0  0  0  0
    3.2085   -4.2861   35.6612 C   0  0  0  0  0  0  0  0  0  0  0  0
    2.6460   -5.3142   36.5960 C   0  0  0  0  0  0  0  0  0  0  0  0
    3.4783   -5.7288   37.6419 C   0  0  0  0  0  0  0  0  0  0  0  0
    3.0969   -6.7990   38.4214 C   0  0  0  0  0  0  0  0  0  0  0  0
    1.9379   -7.4615   38.2624 N   0  0  0  0  0  0  0  0  0  0  0  0
    1.1311   -7.0435   37.2598 C   0  0  0  0  0  0  0  0  0  0  0  0
    1.4459   -6.0045   36.3810 C   0  0  0  0  0  0  0  0  0  0  0  0
    0.4828   -5.7963   35.2770 C   0  0  0  0  0  0  0  0  0  0  0  0
   -0.6972   -5.7975   35.6229 O   0  0  0  0  0  0  0  0  0  0  0  0
    0.8858   -5.7065   33.7909 C   0  0  0  0  0  0  0  0  0  0  0  0
    0.9394   -4.2552   33.2657 C   0  0  0  0  0  0  0  0  0  0  0  0
    1.0188   -4.1645   31.7267 C   0  0  0  0  0  0  0  0  0  0  0  0
   -0.2366   -4.7381   31.1015 C   0  0  0  0  0  0  0  0  0  0  0  0
   -1.6338   -3.3925   31.4678 Br  0  0  0  0  0  0  0  0  0  0  0  0
   -0.5806   -6.0475   31.7186 C   0  0  0  0  0  0  0  0  0  0  0  0
   -1.2408   -7.0600   31.1911 N   0  0  0  0  0  0  0  0  0  0  0  0
   -1.4030   -8.0151   32.1612 N   0  0  0  0  0  0  0  0  0  0  0  0
   -0.7947   -7.5911   33.2451 C   0  0  0  0  0  0  0  0  0  0  0  0
   -0.1649   -6.4092   32.9801 N   0  0  0  0  0  0  0  0  0  0  0  0
    2.2046   -6.4420   33.4938 C   0  0  0  0  0  0  0  0  0  0  0  0
    3.4010   -6.2921   34.2332 O   0  0  0  0  0  0  0  0  0  0  0  0
    5.0145   -3.3334   33.7548 H   0  0  0  0  0  0  0  0  0  0  0  0
    3.6990   -3.9410   32.7383 H   0  0  0  0  0  0  0  0  0  0  0  0
    5.1950   -4.8309   32.8200 H   0  0  0  0  0  0  0  0  0  0  0  0
    4.9227   -5.3687   35.0990 H   0  0  0  0  0  0  0  0  0  0  0  0
    3.8875   -3.6067   36.1947 H   0  0  0  0  0  0  0  0  0  0  0  0
    2.4106   -3.6334   35.3254 H   0  0  0  0  0  0  0  0  0  0  0  0
    4.4358   -5.2524   37.8322 H   0  0  0  0  0  0  0  0  0  0  0  0
    3.7264   -7.1577   39.2315 H   0  0  0  0  0  0  0  0  0  0  0  0
    0.2083   -7.6154   37.1635 H   0  0  0  0  0  0  0  0  0  0  0  0
    1.7967   -3.7015   33.6170 H   0  0  0  0  0  0  0  0  0  0  0  0
    0.0814   -3.6952   33.6564 H   0  0  0  0  0  0  0  0  0  0  0  0
    1.8974   -4.6967   31.3484 H   0  0  0  0  0  0  0  0  0  0  0  0
    1.1664   -3.1166   31.4341 H   0  0  0  0  0  0  0  0  0  0  0  0
   -0.1550   -4.8025   30.0135 H   0  0  0  0  0  0  0  0  0  0  0  0
   -0.7677   -8.1059   34.1967 H   0  0  0  0  0  0  0  0  0  0  0  0
    2.4641   -6.3687   32.4364 H   0  0  0  0  0  0  0  0  0  0  0  0
    1.9647   -7.4896   33.6670 H   0  0  0  0  0  0  0  0  0  0  0  0
  1  2  1  0
  2  3  1  0
  3  4  1  0
  4  5  2  0
  5  6  1  0
  6  7  2  0
  7  8  1  0
  8  9  2  0
  9 10  1  0
 10 11  2  0
 10 12  1  0
 12 13  1  0
 13 14  1  0
 14 15  1  0
 15 16  1  0
 15 17  1  0
 17 18  2  0
 18 19  1  0
 19 20  2  0
 20 21  1  0
 12 22  1  0
 22 23  1  0
 23  2  1  0
  9  4  1  0
 21 12  1  0
 21 17  1  0
  1 24  1  0
  1 25  1  0
  1 26  1  0
  2 27  1  0
  3 28  1  0
  3 29  1  0
  5 30  1  0
  6 31  1  0
  8 32  1  0
 13 33  1  0
 13 34  1  0
 14 35  1  0
 14 36  1  0
 15 37  1  0
 20 38  1  0
 22 39  1  0
 22 40  1  0
M  END
>  <Energy>  (111) 
108.01427890748127

>  <compound_id>  (111) 
2401

>  <target_id>  (111) 
1

>  <reference_id>  (111) 
165

>  <inspiration_ids>  (111) 
[165, 56]

>  <energy_score>  (111) 
-46.10191479760499

>  <distance_score>  (111) 
1.6530473260238188

>  <path>  (111) 
/opt/xchem-fragalysis-2/maxwin/BulkDock/SCRATCH/505736/C2401-P165/C2401-P165.minimised.mol

>  <scratch_subdir>  (111) 
/opt/xchem-fragalysis-2/maxwin/BulkDock/SCRATCH/505736/C2401-P165

>  <fragmenstein_runtime>  (111) 
1.1854627132415771

>  <fragmenstein_outcome>  (111) 
too moved

>  <fragmenstein_mode>  (111) 
expansion

>  <fragmenstein_error>  (111) 


$$$$
C2401-P56
     RDKit          3D

 40 43  0  0  0  0  0  0  0  0999 V2000
    3.0494   -2.0785   33.7265 C   0  0  0  0  0  0  0  0  0  0  0  0
    1.8932   -2.5731   34.6039 C   0  0  0  0  0  0  0  0  0  0  0  0
    2.4053   -3.4389   35.7439 C   0  0  0  0  0  0  0  0  0  0  0  0
    3.3629   -4.5010   35.3033 C   0  0  0  0  0  0  0  0  0  0  0  0
    4.7399   -4.2280   35.3377 C   0  0  0  0  0  0  0  0  0  0  0  0
    5.6563   -5.2439   35.1217 C   0  0  0  0  0  0  0  0  0  0  0  0
    5.3056   -6.5201   34.9293 N   0  0  0  0  0  0  0  0  0  0  0  0
    3.9731   -6.7592   34.9364 C   0  0  0  0  0  0  0  0  0  0  0  0
    2.9699   -5.7864   34.9830 C   0  0  0  0  0  0  0  0  0  0  0  0
    1.5594   -6.1938   34.8177 C   0  0  0  0  0  0  0  0  0  0  0  0
    1.1417   -7.0015   35.6499 O   0  0  0  0  0  0  0  0  0  0  0  0
    0.6933   -5.5933   33.6712 C   0  0  0  0  0  0  0  0  0  0  0  0
    1.5405   -5.3232   32.3729 C   0  0  0  0  0  0  0  0  0  0  0  0
    0.7084   -5.3118   31.0911 C   0  0  0  0  0  0  0  0  0  0  0  0
    0.0830   -6.6822   30.9675 C   0  0  0  0  0  0  0  0  0  0  0  0
   -0.7166   -6.9544   29.2493 Br  0  0  0  0  0  0  0  0  0  0  0  0
   -0.7789   -6.9821   32.1149 C   0  0  0  0  0  0  0  0  0  0  0  0
   -1.7864   -7.8215   32.2109 N   0  0  0  0  0  0  0  0  0  0  0  0
   -2.0963   -7.9397   33.5427 N   0  0  0  0  0  0  0  0  0  0  0  0
   -1.2830   -7.1593   34.2184 C   0  0  0  0  0  0  0  0  0  0  0  0
   -0.4212   -6.5346   33.3661 N   0  0  0  0  0  0  0  0  0  0  0  0
    0.0973   -4.2360   34.1517 C   0  0  0  0  0  0  0  0  0  0  0  0
    0.8898   -3.1149   33.7433 O   0  0  0  0  0  0  0  0  0  0  0  0
    2.6650   -1.3647   32.9879 H   0  0  0  0  0  0  0  0  0  0  0  0
    3.5195   -2.8757   33.1446 H   0  0  0  0  0  0  0  0  0  0  0  0
    3.8115   -1.5620   34.3182 H   0  0  0  0  0  0  0  0  0  0  0  0
    1.4239   -1.6925   35.0600 H   0  0  0  0  0  0  0  0  0  0  0  0
    2.9256   -2.7895   36.4627 H   0  0  0  0  0  0  0  0  0  0  0  0
    1.5962   -3.8850   36.3306 H   0  0  0  0  0  0  0  0  0  0  0  0
    5.1107   -3.2390   35.5896 H   0  0  0  0  0  0  0  0  0  0  0  0
    6.7241   -5.0513   35.1524 H   0  0  0  0  0  0  0  0  0  0  0  0
    3.7328   -7.8165   34.9241 H   0  0  0  0  0  0  0  0  0  0  0  0
    2.1107   -4.3958   32.4178 H   0  0  0  0  0  0  0  0  0  0  0  0
    2.3269   -6.0632   32.2419 H   0  0  0  0  0  0  0  0  0  0  0  0
    1.3648   -5.0985   30.2391 H   0  0  0  0  0  0  0  0  0  0  0  0
   -0.0473   -4.5173   31.1251 H   0  0  0  0  0  0  0  0  0  0  0  0
    0.8509   -7.4293   31.0701 H   0  0  0  0  0  0  0  0  0  0  0  0
   -1.2816   -7.0269   35.2915 H   0  0  0  0  0  0  0  0  0  0  0  0
   -0.1384   -4.2078   35.2202 H   0  0  0  0  0  0  0  0  0  0  0  0
   -0.8557   -4.0790   33.6358 H   0  0  0  0  0  0  0  0  0  0  0  0
  1  2  1  0
  2  3  1  0
  3  4  1  0
  4  5  2  0
  5  6  1  0
  6  7  2  0
  7  8  1  0
  8  9  2  0
  9 10  1  0
 10 11  2  0
 10 12  1  0
 12 13  1  0
 13 14  1  0
 14 15  1  0
 15 16  1  0
 15 17  1  0
 17 18  2  0
 18 19  1  0
 19 20  2  0
 20 21  1  0
 12 22  1  0
 22 23  1  0
 23  2  1  0
  9  4  1  0
 21 12  1  0
 21 17  1  0
  1 24  1  0
  1 25  1  0
  1 26  1  0
  2 27  1  0
  3 28  1  0
  3 29  1  0
  5 30  1  0
  6 31  1  0
  8 32  1  0
 13 33  1  0
 13 34  1  0
 14 35  1  0
 14 36  1  0
 15 37  1  0
 20 38  1  0
 22 39  1  0
 22 40  1  0
M  END
>  <Energy>  (112) 
99.074103245981107

>  <compound_id>  (112) 
2401

>  <target_id>  (112) 
1

>  <reference_id>  (112) 
56

>  <inspiration_ids>  (112) 
[165, 56]

>  <energy_score>  (112) 
-55.042090459106106

>  <distance_score>  (112) 
1.746285704502384

>  <path>  (112) 
/opt/xchem-fragalysis-2/maxwin/BulkDock/SCRATCH/505736/C2401-P56/C2401-P56.minimised.mol

>  <scratch_subdir>  (112) 
/opt/xchem-fragalysis-2/maxwin/BulkDock/SCRATCH/505736/C2401-P56

>  <fragmenstein_runtime>  (112) 
1.4039835929870605

>  <fragmenstein_outcome>  (112) 
too moved

>  <fragmenstein_mode>  (112) 
expansion

>  <fragmenstein_error>  (112) 


$$$$
C2373-P165
     RDKit          3D

 47 50  0  0  0  0  0  0  0  0999 V2000
   -0.0823   -9.4381   28.8008 C   0  0  0  0  0  0  0  0  0  0  0  0
   -0.7365   -8.6729   29.7303 N   0  0  0  0  0  0  0  0  0  0  0  0
   -1.4113  -10.3194   30.1704 C   0  0  0  0  0  0  0  0  0  0  0  0
   -2.3593  -11.5831   29.0858 C   0  0  0  0  0  0  0  0  0  0  0  0
   -2.5166  -12.9347   29.2629 C   0  0  0  0  0  0  0  0  0  0  0  0
   -1.9684  -14.1312   28.3959 C   0  0  0  0  0  0  0  0  0  0  0  0
   -2.2921  -13.9423   27.0571 C   0  0  0  0  0  0  0  0  0  0  0  0
   -2.7367  -12.7041   26.7063 C   0  0  0  0  0  0  0  0  0  0  0  0
   -2.5478  -11.6643   27.6772 C   0  0  0  0  0  0  0  0  0  0  0  0
   -0.2191   -7.9612   30.9228 C   0  0  0  0  0  0  0  0  0  0  0  0
    0.8733   -7.9616   31.4041 O   0  0  0  0  0  0  0  0  0  0  0  0
   -1.0878   -6.9561   31.6427 C   0  0  0  0  0  0  0  0  0  0  0  0
   -0.7823   -5.7443   30.7698 C   0  0  0  0  0  0  0  0  0  0  0  0
   -0.6669   -4.4654   31.1408 C   0  0  0  0  0  0  0  0  0  0  0  0
   -0.7948   -4.1655   32.4930 C   0  0  0  0  0  0  0  0  0  0  0  0
   -0.6763   -3.0333   33.1371 N   0  0  0  0  0  0  0  0  0  0  0  0
   -0.7485   -3.3138   34.4706 N   0  0  0  0  0  0  0  0  0  0  0  0
   -0.9268   -4.6082   34.5967 C   0  0  0  0  0  0  0  0  0  0  0  0
   -0.9568   -5.2249   33.3632 N   0  0  0  0  0  0  0  0  0  0  0  0
   -0.9978   -6.6051   32.9793 C   0  0  0  0  0  0  0  0  0  0  0  0
   -0.5659   -7.6558   34.2917 S   0  0  0  0  0  0  0  0  0  0  0  0
    1.2207   -7.2938   34.4438 C   0  0  0  0  0  0  0  0  0  0  0  0
    1.6671   -6.2521   35.4292 C   0  0  0  0  0  0  0  0  0  0  0  0
    2.2909   -5.0774   34.9860 C   0  0  0  0  0  0  0  0  0  0  0  0
    2.7883   -4.1889   35.9243 C   0  0  0  0  0  0  0  0  0  0  0  0
    2.7315   -4.4037   37.2534 N   0  0  0  0  0  0  0  0  0  0  0  0
    2.1132   -5.5320   37.6631 C   0  0  0  0  0  0  0  0  0  0  0  0
    1.5700   -6.4739   36.8039 C   0  0  0  0  0  0  0  0  0  0  0  0
    0.6549   -8.7884   28.3433 H   0  0  0  0  0  0  0  0  0  0  0  0
   -0.6542   -9.8634   28.0373 H   0  0  0  0  0  0  0  0  0  0  0  0
    0.6071  -10.0560   29.2734 H   0  0  0  0  0  0  0  0  0  0  0  0
   -0.6643  -10.9411   30.6106 H   0  0  0  0  0  0  0  0  0  0  0  0
   -1.9344   -9.9658   31.0640 H   0  0  0  0  0  0  0  0  0  0  0  0
   -2.8301  -13.4384   30.1315 H   0  0  0  0  0  0  0  0  0  0  0  0
   -1.9127  -15.1375   28.8218 H   0  0  0  0  0  0  0  0  0  0  0  0
   -2.5313  -14.7852   26.4596 H   0  0  0  0  0  0  0  0  0  0  0  0
   -2.9125  -12.4471   25.6804 H   0  0  0  0  0  0  0  0  0  0  0  0
   -2.0582  -10.9352   27.0656 H   0  0  0  0  0  0  0  0  0  0  0  0
   -0.5649   -5.9485   29.7221 H   0  0  0  0  0  0  0  0  0  0  0  0
   -0.4289   -3.6750   30.4353 H   0  0  0  0  0  0  0  0  0  0  0  0
   -1.0577   -5.1265   35.5353 H   0  0  0  0  0  0  0  0  0  0  0  0
    1.7140   -8.2181   34.7565 H   0  0  0  0  0  0  0  0  0  0  0  0
    1.6352   -7.0494   33.4632 H   0  0  0  0  0  0  0  0  0  0  0  0
    2.3888   -4.8437   33.9308 H   0  0  0  0  0  0  0  0  0  0  0  0
    3.2609   -3.2586   35.6229 H   0  0  0  0  0  0  0  0  0  0  0  0
    2.0661   -5.6662   38.7404 H   0  0  0  0  0  0  0  0  0  0  0  0
    1.1010   -7.3681   37.2049 H   0  0  0  0  0  0  0  0  0  0  0  0
  1  2  1  0
  2  3  1  0
  3  4  1  0
  4  5  2  0
  5  6  1  0
  6  7  2  0
  7  8  1  0
  8  9  2  0
  2 10  1  0
 10 11  2  0
 10 12  1  0
 12 13  1  0
 13 14  2  0
 14 15  1  0
 15 16  2  0
 16 17  1  0
 17 18  2  0
 18 19  1  0
 19 20  1  0
 20 21  1  0
 21 22  1  0
 22 23  1  0
 23 24  2  0
 24 25  1  0
 25 26  2  0
 26 27  1  0
 27 28  2  0
  9  4  1  0
 20 12  2  0
 28 23  1  0
 19 15  1  0
  1 29  1  0
  1 30  1  0
  1 31  1  0
  3 32  1  0
  3 33  1  0
  5 34  1  0
  6 35  1  0
  7 36  1  0
  8 37  1  0
  9 38  1  0
 13 39  1  0
 14 40  1  0
 18 41  1  0
 22 42  1  0
 22 43  1  0
 24 44  1  0
 25 45  1  0
 27 46  1  0
 28 47  1  0
M  END
>  <Energy>  (113) 
366.25809716338819

>  <compound_id>  (113) 
2373

>  <target_id>  (113) 
1

>  <reference_id>  (113) 
165

>  <inspiration_ids>  (113) 
[165, 116]

>  <energy_score>  (113) 
280.4196891173962

>  <distance_score>  (113) 
2.8270978011381733

>  <path>  (113) 
/opt/xchem-fragalysis-2/maxwin/BulkDock/SCRATCH/505736/C2373-P165/C2373-P165.minimised.mol

>  <scratch_subdir>  (113) 
/opt/xchem-fragalysis-2/maxwin/BulkDock/SCRATCH/505736/C2373-P165

>  <fragmenstein_runtime>  (113) 
18.154162645339966

>  <fragmenstein_outcome>  (113) 
too moved

>  <fragmenstein_mode>  (113) 
expansion

>  <fragmenstein_error>  (113) 


$$$$
C2373-P116
     RDKit          3D

 47 50  0  0  0  0  0  0  0  0999 V2000
    2.2415  -11.2890   31.1063 C   0  0  0  0  0  0  0  0  0  0  0  0
    0.9313  -10.4204   30.8198 N   0  0  0  0  0  0  0  0  0  0  0  0
    0.4294  -11.7102   31.3924 C   0  0  0  0  0  0  0  0  0  0  0  0
    0.0686  -12.4872   29.9837 C   0  0  0  0  0  0  0  0  0  0  0  0
   -0.4724  -13.7599   29.9834 C   0  0  0  0  0  0  0  0  0  0  0  0
   -1.1118  -14.2036   28.8313 C   0  0  0  0  0  0  0  0  0  0  0  0
   -1.1454  -13.4078   27.6942 C   0  0  0  0  0  0  0  0  0  0  0  0
   -0.3025  -12.3295   27.5983 C   0  0  0  0  0  0  0  0  0  0  0  0
    0.3361  -11.8895   28.7294 C   0  0  0  0  0  0  0  0  0  0  0  0
    0.5146   -8.7932   31.4874 C   0  0  0  0  0  0  0  0  0  0  0  0
    1.0712   -8.1039   32.3247 O   0  0  0  0  0  0  0  0  0  0  0  0
   -0.5978   -8.0660   30.9082 C   0  0  0  0  0  0  0  0  0  0  0  0
   -0.9051   -9.0065   29.8992 C   0  0  0  0  0  0  0  0  0  0  0  0
   -1.4376  -10.1233   30.4415 C   0  0  0  0  0  0  0  0  0  0  0  0
   -2.2637   -9.8553   31.5569 C   0  0  0  0  0  0  0  0  0  0  0  0
   -3.5544  -10.0487   31.5228 N   0  0  0  0  0  0  0  0  0  0  0  0
   -4.1176   -9.3772   32.4901 N   0  0  0  0  0  0  0  0  0  0  0  0
   -3.0816   -9.0687   33.1974 C   0  0  0  0  0  0  0  0  0  0  0  0
   -2.1227   -8.7627   32.3373 N   0  0  0  0  0  0  0  0  0  0  0  0
   -1.3354   -7.6816   31.9941 C   0  0  0  0  0  0  0  0  0  0  0  0
   -0.9550   -6.6474   33.3600 S   0  0  0  0  0  0  0  0  0  0  0  0
   -0.6844   -4.9054   33.1879 C   0  0  0  0  0  0  0  0  0  0  0  0
    0.5597   -4.3590   33.8814 C   0  0  0  0  0  0  0  0  0  0  0  0
    0.7597   -2.9707   33.8984 C   0  0  0  0  0  0  0  0  0  0  0  0
    1.9185   -2.4571   34.4645 C   0  0  0  0  0  0  0  0  0  0  0  0
    2.8846   -3.2178   35.0169 N   0  0  0  0  0  0  0  0  0  0  0  0
    2.6661   -4.5465   35.0330 C   0  0  0  0  0  0  0  0  0  0  0  0
    1.5438   -5.1520   34.4847 C   0  0  0  0  0  0  0  0  0  0  0  0
    2.3854  -12.2769   30.6312 H   0  0  0  0  0  0  0  0  0  0  0  0
    2.6403  -11.1691   32.1138 H   0  0  0  0  0  0  0  0  0  0  0  0
    3.0435  -10.7859   30.5448 H   0  0  0  0  0  0  0  0  0  0  0  0
   -0.4612  -11.5938   32.0058 H   0  0  0  0  0  0  0  0  0  0  0  0
    0.9330  -12.6666   31.6546 H   0  0  0  0  0  0  0  0  0  0  0  0
   -0.4847  -14.3632   30.8866 H   0  0  0  0  0  0  0  0  0  0  0  0
   -1.6437  -15.1466   28.8247 H   0  0  0  0  0  0  0  0  0  0  0  0
   -1.7596  -13.6815   26.8438 H   0  0  0  0  0  0  0  0  0  0  0  0
   -0.1682  -11.8034   26.6700 H   0  0  0  0  0  0  0  0  0  0  0  0
    0.9472  -10.9980   28.6323 H   0  0  0  0  0  0  0  0  0  0  0  0
   -0.4789   -8.9946   28.9149 H   0  0  0  0  0  0  0  0  0  0  0  0
   -1.6730  -10.9929   29.8368 H   0  0  0  0  0  0  0  0  0  0  0  0
   -3.2127   -8.9392   34.2136 H   0  0  0  0  0  0  0  0  0  0  0  0
   -0.7702   -4.5322   32.1765 H   0  0  0  0  0  0  0  0  0  0  0  0
   -1.5035   -4.4216   33.7168 H   0  0  0  0  0  0  0  0  0  0  0  0
    0.0290   -2.2943   33.4635 H   0  0  0  0  0  0  0  0  0  0  0  0
    2.1025   -1.3863   34.4850 H   0  0  0  0  0  0  0  0  0  0  0  0
    3.4437   -5.1331   35.5126 H   0  0  0  0  0  0  0  0  0  0  0  0
    1.4557   -6.2320   34.5307 H   0  0  0  0  0  0  0  0  0  0  0  0
  1  2  1  0
  2  3  1  0
  3  4  1  0
  4  5  2  0
  5  6  1  0
  6  7  2  0
  7  8  1  0
  8  9  2  0
  2 10  1  0
 10 11  2  0
 10 12  1  0
 12 13  1  0
 13 14  2  0
 14 15  1  0
 15 16  2  0
 16 17  1  0
 17 18  2  0
 18 19  1  0
 19 20  1  0
 20 21  1  0
 21 22  1  0
 22 23  1  0
 23 24  2  0
 24 25  1  0
 25 26  2  0
 26 27  1  0
 27 28  2  0
  9  4  1  0
 20 12  2  0
 28 23  1  0
 19 15  1  0
  1 29  1  0
  1 30  1  0
  1 31  1  0
  3 32  1  0
  3 33  1  0
  5 34  1  0
  6 35  1  0
  7 36  1  0
  8 37  1  0
  9 38  1  0
 13 39  1  0
 14 40  1  0
 18 41  1  0
 22 42  1  0
 22 43  1  0
 24 44  1  0
 25 45  1  0
 27 46  1  0
 28 47  1  0
M  END
>  <Energy>  (114) 
451.89496075622986

>  <compound_id>  (114) 
2373

>  <target_id>  (114) 
1

>  <reference_id>  (114) 
116

>  <inspiration_ids>  (114) 
[165, 116]

>  <energy_score>  (114) 
366.05655271023664

>  <distance_score>  (114) 
2.472681897500997

>  <path>  (114) 
/opt/xchem-fragalysis-2/maxwin/BulkDock/SCRATCH/505736/C2373-P116/C2373-P116.minimised.mol

>  <scratch_subdir>  (114) 
/opt/xchem-fragalysis-2/maxwin/BulkDock/SCRATCH/505736/C2373-P116

>  <fragmenstein_runtime>  (114) 
11.250927925109863

>  <fragmenstein_outcome>  (114) 
too moved

>  <fragmenstein_mode>  (114) 
expansion

>  <fragmenstein_error>  (114) 


$$$$
C2373-P165
     RDKit          2D

  0  0  0  0  0  0  0  0  0  0999 V2000
M  END
>  <compound_id>  (115) 
2373

>  <target_id>  (115) 
1

>  <reference_id>  (115) 
165

>  <inspiration_ids>  (115) 
[165, 128]

>  <energy_score>  (115) 
nan

>  <distance_score>  (115) 
nan

>  <path>  (115) 
/opt/xchem-fragalysis-2/maxwin/BulkDock/SCRATCH/505736/C2373-P165/C2373-P165.minimised.mol

>  <scratch_subdir>  (115) 
/opt/xchem-fragalysis-2/maxwin/BulkDock/SCRATCH/505736/C2373-P165

>  <fragmenstein_runtime>  (115) 
0.35735440254211426

>  <fragmenstein_outcome>  (115) 
crashed

>  <fragmenstein_mode>  (115) 
expansion

>  <fragmenstein_error>  (115) 
PoisonError: None has poison atoms [22, 27, 26, 25, 23, 22, 23, 24, 25, 27, 12, 13, 14, 18, 19, 12, 13, 14, 18, 19]

$$$$
C2404-P165
     RDKit          3D

 47 50  0  0  0  0  0  0  0  0999 V2000
    0.6342   -2.4318   29.5829 O   0  0  0  0  0  0  0  0  0  0  0  0
   -0.5006   -2.0778   30.3898 C   0  0  0  0  0  0  0  0  0  0  0  0
   -1.3558   -1.0129   29.6301 C   0  0  0  0  0  0  0  0  0  0  0  0
   -0.7581    0.2275   29.0195 C   0  0  0  0  0  0  0  0  0  0  0  0
    0.1100    1.0802   29.6988 C   0  0  0  0  0  0  0  0  0  0  0  0
    0.4560    2.3193   29.1566 C   0  0  0  0  0  0  0  0  0  0  0  0
   -0.0770    2.7294   27.9387 C   0  0  0  0  0  0  0  0  0  0  0  0
   -0.9282    1.8862   27.2388 C   0  0  0  0  0  0  0  0  0  0  0  0
   -1.2479    0.6381   27.7651 C   0  0  0  0  0  0  0  0  0  0  0  0
   -1.4011   -3.3202   30.5272 C   0  0  0  0  0  0  0  0  0  0  0  0
   -2.1653   -3.4907   31.7793 N   0  0  0  0  0  0  0  0  0  0  0  0
   -2.4929   -2.2190   32.4086 C   0  0  0  0  0  0  0  0  0  0  0  0
   -1.2350   -1.4326   32.7544 C   0  0  0  0  0  0  0  0  0  0  0  0
   -0.0373   -1.6999   31.8215 C   0  0  0  0  0  0  0  0  0  0  0  0
    1.0224   -2.6517   32.4542 C   0  0  0  0  0  0  0  0  0  0  0  0
    0.5925   -4.1595   33.4061 S   0  0  0  0  0  0  0  0  0  0  0  0
    0.5754   -5.4432   32.2479 C   0  0  0  0  0  0  0  0  0  0  0  0
    1.3257   -5.4149   31.1298 C   0  0  0  0  0  0  0  0  0  0  0  0
    1.1493   -6.4342   30.1210 C   0  0  0  0  0  0  0  0  0  0  0  0
    0.2915   -7.4553   30.2875 C   0  0  0  0  0  0  0  0  0  0  0  0
   -0.4943   -7.5095   31.4500 C   0  0  0  0  0  0  0  0  0  0  0  0
   -1.4298   -8.3466   31.8152 N   0  0  0  0  0  0  0  0  0  0  0  0
   -1.8163   -7.9829   33.0756 N   0  0  0  0  0  0  0  0  0  0  0  0
   -1.1386   -6.9132   33.4280 C   0  0  0  0  0  0  0  0  0  0  0  0
   -0.3038   -6.5325   32.4142 N   0  0  0  0  0  0  0  0  0  0  0  0
    0.3814   -2.2962   28.6475 H   0  0  0  0  0  0  0  0  0  0  0  0
   -2.1797   -0.6587   30.2536 H   0  0  0  0  0  0  0  0  0  0  0  0
   -1.8194   -1.5368   28.7825 H   0  0  0  0  0  0  0  0  0  0  0  0
    0.5029    0.8494   30.6773 H   0  0  0  0  0  0  0  0  0  0  0  0
    1.1130    2.9895   29.7055 H   0  0  0  0  0  0  0  0  0  0  0  0
    0.1612    3.7130   27.5423 H   0  0  0  0  0  0  0  0  0  0  0  0
   -1.3635    2.2080   26.2968 H   0  0  0  0  0  0  0  0  0  0  0  0
   -1.9244    0.0013   27.1968 H   0  0  0  0  0  0  0  0  0  0  0  0
   -2.1051   -3.2990   29.6994 H   0  0  0  0  0  0  0  0  0  0  0  0
   -0.8319   -4.2270   30.3317 H   0  0  0  0  0  0  0  0  0  0  0  0
   -1.5699   -3.9832   32.4541 H   0  0  0  0  0  0  0  0  0  0  0  0
   -3.1657   -1.6437   31.7706 H   0  0  0  0  0  0  0  0  0  0  0  0
   -3.0647   -2.3906   33.3251 H   0  0  0  0  0  0  0  0  0  0  0  0
   -1.4864   -0.3646   32.7055 H   0  0  0  0  0  0  0  0  0  0  0  0
   -0.9524   -1.6148   33.7982 H   0  0  0  0  0  0  0  0  0  0  0  0
    0.5217   -0.7655   31.7514 H   0  0  0  0  0  0  0  0  0  0  0  0
    1.8406   -2.8318   31.7539 H   0  0  0  0  0  0  0  0  0  0  0  0
    1.5059   -2.0439   33.2330 H   0  0  0  0  0  0  0  0  0  0  0  0
    2.0422   -4.6390   30.8906 H   0  0  0  0  0  0  0  0  0  0  0  0
    1.7818   -6.3585   29.2420 H   0  0  0  0  0  0  0  0  0  0  0  0
    0.1924   -8.2785   29.5886 H   0  0  0  0  0  0  0  0  0  0  0  0
   -1.2265   -6.3927   34.3714 H   0  0  0  0  0  0  0  0  0  0  0  0
  1  2  1  0
  2  3  1  0
  3  4  1  0
  4  5  2  0
  5  6  1  0
  6  7  2  0
  7  8  1  0
  8  9  2  0
  2 10  1  0
 10 11  1  0
 11 12  1  0
 12 13  1  0
 13 14  1  0
 14 15  1  0
 15 16  1  0
 16 17  1  0
 17 18  2  0
 18 19  1  0
 19 20  2  0
 20 21  1  0
 21 22  2  0
 22 23  1  0
 23 24  2  0
 24 25  1  0
 14  2  1  0
 25 17  1  0
  9  4  1  0
 25 21  1  0
  1 26  1  0
  3 27  1  0
  3 28  1  0
  5 29  1  0
  6 30  1  0
  7 31  1  0
  8 32  1  0
  9 33  1  0
 10 34  1  0
 10 35  1  0
 11 36  1  0
 12 37  1  0
 12 38  1  0
 13 39  1  0
 13 40  1  0
 14 41  1  0
 15 42  1  0
 15 43  1  0
 18 44  1  0
 19 45  1  0
 20 46  1  0
 24 47  1  0
M  END
>  <Energy>  (116) 
122.3111663841016

>  <compound_id>  (116) 
2404

>  <target_id>  (116) 
1

>  <reference_id>  (116) 
165

>  <inspiration_ids>  (116) 
[165, 130]

>  <energy_score>  (116) 
-28.564319589153513

>  <distance_score>  (116) 
1.7057539859664375

>  <path>  (116) 
/opt/xchem-fragalysis-2/maxwin/BulkDock/SCRATCH/505736/C2404-P165/C2404-P165.minimised.mol

>  <scratch_subdir>  (116) 
/opt/xchem-fragalysis-2/maxwin/BulkDock/SCRATCH/505736/C2404-P165

>  <fragmenstein_runtime>  (116) 
4.480231761932373

>  <fragmenstein_outcome>  (116) 
too moved

>  <fragmenstein_mode>  (116) 
expansion

>  <fragmenstein_error>  (116) 


$$$$
C2404-P130
     RDKit          3D

 47 50  0  0  0  0  0  0  0  0999 V2000
    0.4421   -2.3831   29.4971 O   0  0  0  0  0  0  0  0  0  0  0  0
   -0.6645   -2.0494   30.3509 C   0  0  0  0  0  0  0  0  0  0  0  0
   -1.5550   -0.9749   29.6488 C   0  0  0  0  0  0  0  0  0  0  0  0
   -0.9716    0.2745   29.0440 C   0  0  0  0  0  0  0  0  0  0  0  0
   -0.1706    1.1637   29.7611 C   0  0  0  0  0  0  0  0  0  0  0  0
    0.1925    2.3940   29.2129 C   0  0  0  0  0  0  0  0  0  0  0  0
   -0.2701    2.7657   27.9555 C   0  0  0  0  0  0  0  0  0  0  0  0
   -1.0724    1.8957   27.2292 C   0  0  0  0  0  0  0  0  0  0  0  0
   -1.4039    0.6518   27.7597 C   0  0  0  0  0  0  0  0  0  0  0  0
   -1.5520   -3.3001   30.5015 C   0  0  0  0  0  0  0  0  0  0  0  0
   -2.2801   -3.4906   31.7686 N   0  0  0  0  0  0  0  0  0  0  0  0
   -2.5766   -2.2325   32.4404 C   0  0  0  0  0  0  0  0  0  0  0  0
   -1.3074   -1.4476   32.7525 C   0  0  0  0  0  0  0  0  0  0  0  0
   -0.1464   -1.6835   31.7663 C   0  0  0  0  0  0  0  0  0  0  0  0
    0.9587   -2.6165   32.3415 C   0  0  0  0  0  0  0  0  0  0  0  0
    0.5888   -4.1222   33.3132 S   0  0  0  0  0  0  0  0  0  0  0  0
    0.5425   -5.4069   32.1596 C   0  0  0  0  0  0  0  0  0  0  0  0
    1.2475   -5.3794   31.0123 C   0  0  0  0  0  0  0  0  0  0  0  0
    1.0575   -6.4209   30.0278 C   0  0  0  0  0  0  0  0  0  0  0  0
    0.2276   -7.4552   30.2417 C   0  0  0  0  0  0  0  0  0  0  0  0
   -0.5123   -7.5051   31.4341 C   0  0  0  0  0  0  0  0  0  0  0  0
   -1.4050   -8.3613   31.8558 N   0  0  0  0  0  0  0  0  0  0  0  0
   -1.7493   -7.9835   33.1247 N   0  0  0  0  0  0  0  0  0  0  0  0
   -1.0924   -6.8869   33.4261 C   0  0  0  0  0  0  0  0  0  0  0  0
   -0.3070   -6.5083   32.3735 N   0  0  0  0  0  0  0  0  0  0  0  0
    0.1561   -2.2368   28.5728 H   0  0  0  0  0  0  0  0  0  0  0  0
   -2.3512   -0.6301   30.3122 H   0  0  0  0  0  0  0  0  0  0  0  0
   -2.0610   -1.4812   28.8148 H   0  0  0  0  0  0  0  0  0  0  0  0
    0.1471    0.9673   30.7746 H   0  0  0  0  0  0  0  0  0  0  0  0
    0.8010    3.0888   29.7865 H   0  0  0  0  0  0  0  0  0  0  0  0
   -0.0228    3.7439   27.5512 H   0  0  0  0  0  0  0  0  0  0  0  0
   -1.4608    2.1962   26.2603 H   0  0  0  0  0  0  0  0  0  0  0  0
   -2.0446   -0.0046   27.1712 H   0  0  0  0  0  0  0  0  0  0  0  0
   -2.2856   -3.2816   29.6968 H   0  0  0  0  0  0  0  0  0  0  0  0
   -0.9723   -4.1971   30.2884 H   0  0  0  0  0  0  0  0  0  0  0  0
   -1.6738   -4.0067   32.4161 H   0  0  0  0  0  0  0  0  0  0  0  0
   -3.2767   -1.6432   31.8459 H   0  0  0  0  0  0  0  0  0  0  0  0
   -3.1095   -2.4257   33.3764 H   0  0  0  0  0  0  0  0  0  0  0  0
   -1.5663   -0.3804   32.7387 H   0  0  0  0  0  0  0  0  0  0  0  0
   -0.9836   -1.6500   33.7804 H   0  0  0  0  0  0  0  0  0  0  0  0
    0.3951   -0.7399   31.6793 H   0  0  0  0  0  0  0  0  0  0  0  0
    1.7420   -2.7873   31.6004 H   0  0  0  0  0  0  0  0  0  0  0  0
    1.4738   -2.0017   33.0941 H   0  0  0  0  0  0  0  0  0  0  0  0
    1.9412   -4.5951   30.7359 H   0  0  0  0  0  0  0  0  0  0  0  0
    1.6585   -6.3507   29.1270 H   0  0  0  0  0  0  0  0  0  0  0  0
    0.1241   -8.2950   29.5653 H   0  0  0  0  0  0  0  0  0  0  0  0
   -1.1618   -6.3448   34.3586 H   0  0  0  0  0  0  0  0  0  0  0  0
  1  2  1  0
  2  3  1  0
  3  4  1  0
  4  5  2  0
  5  6  1  0
  6  7  2  0
  7  8  1  0
  8  9  2  0
  2 10  1  0
 10 11  1  0
 11 12  1  0
 12 13  1  0
 13 14  1  0
 14 15  1  0
 15 16  1  0
 16 17  1  0
 17 18  2  0
 18 19  1  0
 19 20  2  0
 20 21  1  0
 21 22  2  0
 22 23  1  0
 23 24  2  0
 24 25  1  0
 14  2  1  0
 25 17  1  0
  9  4  1  0
 25 21  1  0
  1 26  1  0
  3 27  1  0
  3 28  1  0
  5 29  1  0
  6 30  1  0
  7 31  1  0
  8 32  1  0
  9 33  1  0
 10 34  1  0
 10 35  1  0
 11 36  1  0
 12 37  1  0
 12 38  1  0
 13 39  1  0
 13 40  1  0
 14 41  1  0
 15 42  1  0
 15 43  1  0
 18 44  1  0
 19 45  1  0
 20 46  1  0
 24 47  1  0
M  END
>  <Energy>  (117) 
120.72243224371529

>  <compound_id>  (117) 
2404

>  <target_id>  (117) 
1

>  <reference_id>  (117) 
130

>  <inspiration_ids>  (117) 
[165, 130]

>  <energy_score>  (117) 
-30.153053729539806

>  <distance_score>  (117) 
1.679573321848597

>  <path>  (117) 
/opt/xchem-fragalysis-2/maxwin/BulkDock/SCRATCH/505736/C2404-P130/C2404-P130.minimised.mol

>  <scratch_subdir>  (117) 
/opt/xchem-fragalysis-2/maxwin/BulkDock/SCRATCH/505736/C2404-P130

>  <fragmenstein_runtime>  (117) 
3.7998995780944824

>  <fragmenstein_outcome>  (117) 
too moved

>  <fragmenstein_mode>  (117) 
expansion

>  <fragmenstein_error>  (117) 


$$$$
C2376-P165
     RDKit          3D

 58 62  0  0  0  0  0  0  0  0999 V2000
   -0.0013   -2.9312   34.3816 O   0  0  0  0  0  0  0  0  0  0  0  0
    0.6060   -3.2618   33.4039 C   0  0  0  0  0  0  0  0  0  0  0  0
    0.6756   -4.7417   32.9670 C   0  0  0  0  0  0  0  0  0  0  0  0
    1.1594   -5.0177   31.5904 C   0  0  0  0  0  0  0  0  0  0  0  0
    0.7335   -6.0529   30.8564 C   0  0  0  0  0  0  0  0  0  0  0  0
   -0.1726   -6.9595   31.4294 C   0  0  0  0  0  0  0  0  0  0  0  0
   -0.8614   -7.9490   30.9097 N   0  0  0  0  0  0  0  0  0  0  0  0
   -1.5730   -8.5251   31.9225 N   0  0  0  0  0  0  0  0  0  0  0  0
   -1.2943   -7.8762   33.0325 C   0  0  0  0  0  0  0  0  0  0  0  0
   -0.4460   -6.8247   32.7845 N   0  0  0  0  0  0  0  0  0  0  0  0
   -0.0089   -5.7404   33.5982 C   0  0  0  0  0  0  0  0  0  0  0  0
   -0.6011   -5.7543   35.2443 S   0  0  0  0  0  0  0  0  0  0  0  0
    0.7590   -5.1704   36.2847 C   0  0  0  0  0  0  0  0  0  0  0  0
    2.1215   -5.7069   35.9355 C   0  0  0  0  0  0  0  0  0  0  0  0
    3.1467   -4.8342   35.5579 C   0  0  0  0  0  0  0  0  0  0  0  0
    4.3858   -5.3600   35.2333 C   0  0  0  0  0  0  0  0  0  0  0  0
    4.6711   -6.6776   35.2742 N   0  0  0  0  0  0  0  0  0  0  0  0
    3.6852   -7.4988   35.6937 C   0  0  0  0  0  0  0  0  0  0  0  0
    2.4094   -7.0711   36.0209 C   0  0  0  0  0  0  0  0  0  0  0  0
    1.2660   -2.4794   32.4205 N   0  0  0  0  0  0  0  0  0  0  0  0
    2.7542   -2.2536   32.8213 C   0  0  0  0  0  0  0  0  0  0  0  0
    3.7875   -1.7614   31.7537 C   0  0  0  0  0  0  0  0  0  0  0  0
    3.3191   -0.5194   30.9816 C   0  0  0  0  0  0  0  0  0  0  0  0
    1.8427   -0.7717   30.7981 C   0  0  0  0  0  0  0  0  0  0  0  0
    0.9302    0.0415   29.9356 C   0  0  0  0  0  0  0  0  0  0  0  0
    1.2012    1.3068   29.4291 C   0  0  0  0  0  0  0  0  0  0  0  0
    0.3090    1.8902   28.5215 C   0  0  0  0  0  0  0  0  0  0  0  0
   -0.8447    1.2091   28.1037 C   0  0  0  0  0  0  0  0  0  0  0  0
   -1.7797    1.8033   27.0932 C   0  0  0  0  0  0  0  0  0  0  0  0
   -2.0900    0.8812   26.0597 O   0  0  0  0  0  0  0  0  0  0  0  0
   -1.1277   -0.0412   28.6462 C   0  0  0  0  0  0  0  0  0  0  0  0
   -0.2570   -0.6109   29.5510 C   0  0  0  0  0  0  0  0  0  0  0  0
    1.3200   -1.0141   32.2275 C   0  0  0  0  0  0  0  0  0  0  0  0
    1.8685   -4.3374   31.1306 H   0  0  0  0  0  0  0  0  0  0  0  0
    1.0749   -6.2083   29.8412 H   0  0  0  0  0  0  0  0  0  0  0  0
   -1.6963   -8.1046   34.0091 H   0  0  0  0  0  0  0  0  0  0  0  0
    0.7691   -4.0776   36.3079 H   0  0  0  0  0  0  0  0  0  0  0  0
    0.5317   -5.4716   37.3147 H   0  0  0  0  0  0  0  0  0  0  0  0
    2.9868   -3.7616   35.5278 H   0  0  0  0  0  0  0  0  0  0  0  0
    5.2082   -4.7170   34.9331 H   0  0  0  0  0  0  0  0  0  0  0  0
    3.9592   -8.5471   35.7677 H   0  0  0  0  0  0  0  0  0  0  0  0
    1.6597   -7.7840   36.3530 H   0  0  0  0  0  0  0  0  0  0  0  0
    2.8474   -1.7239   33.7861 H   0  0  0  0  0  0  0  0  0  0  0  0
    3.1105   -3.2594   33.0871 H   0  0  0  0  0  0  0  0  0  0  0  0
    3.9436   -2.5776   31.0357 H   0  0  0  0  0  0  0  0  0  0  0  0
    4.7559   -1.5724   32.2296 H   0  0  0  0  0  0  0  0  0  0  0  0
    3.5019    0.3940   31.5592 H   0  0  0  0  0  0  0  0  0  0  0  0
    3.8507   -0.4265   30.0289 H   0  0  0  0  0  0  0  0  0  0  0  0
    1.8286   -1.7352   30.2545 H   0  0  0  0  0  0  0  0  0  0  0  0
    2.1080    1.8395   29.7013 H   0  0  0  0  0  0  0  0  0  0  0  0
    0.5330    2.8770   28.1196 H   0  0  0  0  0  0  0  0  0  0  0  0
   -2.7093    2.1149   27.5711 H   0  0  0  0  0  0  0  0  0  0  0  0
   -1.3365    2.6855   26.6201 H   0  0  0  0  0  0  0  0  0  0  0  0
   -1.6684    0.0162   26.2281 H   0  0  0  0  0  0  0  0  0  0  0  0
   -2.0002   -0.6081   28.3333 H   0  0  0  0  0  0  0  0  0  0  0  0
   -0.4872   -1.6103   29.9202 H   0  0  0  0  0  0  0  0  0  0  0  0
    0.2510   -0.7499   32.2516 H   0  0  0  0  0  0  0  0  0  0  0  0
    1.6914   -0.3570   33.0336 H   0  0  0  0  0  0  0  0  0  0  0  0
  1  2  2  0
  2  3  1  0
  3  4  1  0
  4  5  2  0
  5  6  1  0
  6  7  2  0
  7  8  1  0
  8  9  2  0
  9 10  1  0
 10 11  1  0
 11 12  1  0
 12 13  1  0
 13 14  1  0
 14 15  2  0
 15 16  1  0
 16 17  2  0
 17 18  1  0
 18 19  2  0
  2 20  1  0
 20 21  1  0
 21 22  1  0
 22 23  1  0
 23 24  1  0
 24 25  1  0
 25 26  2  0
 26 27  1  0
 27 28  2  0
 28 29  1  0
 29 30  1  0
 28 31  1  0
 31 32  2  0
 24 33  1  0
 11  3  2  0
 19 14  1  0
 33 20  1  0
 10  6  1  0
 32 25  1  0
  4 34  1  0
  5 35  1  0
  9 36  1  0
 13 37  1  0
 13 38  1  0
 15 39  1  0
 16 40  1  0
 18 41  1  0
 19 42  1  0
 21 43  1  0
 21 44  1  0
 22 45  1  0
 22 46  1  0
 23 47  1  0
 23 48  1  0
 24 49  1  0
 26 50  1  0
 27 51  1  0
 29 52  1  0
 29 53  1  0
 30 54  1  0
 31 55  1  0
 32 56  1  0
 33 57  1  0
 33 58  1  0
M  END
>  <Energy>  (118) 
180.68697047139682

>  <compound_id>  (118) 
2376

>  <target_id>  (118) 
1

>  <reference_id>  (118) 
165

>  <inspiration_ids>  (118) 
[165, 131]

>  <energy_score>  (118) 
54.1025693854138

>  <distance_score>  (118) 
2.4662723904056985

>  <path>  (118) 
/opt/xchem-fragalysis-2/maxwin/BulkDock/SCRATCH/505736/C2376-P165/C2376-P165.minimised.mol

>  <scratch_subdir>  (118) 
/opt/xchem-fragalysis-2/maxwin/BulkDock/SCRATCH/505736/C2376-P165

>  <fragmenstein_runtime>  (118) 
7.149127006530762

>  <fragmenstein_outcome>  (118) 
too moved

>  <fragmenstein_mode>  (118) 
expansion

>  <fragmenstein_error>  (118) 


$$$$
C2376-P131
     RDKit          3D

 58 62  0  0  0  0  0  0  0  0999 V2000
    0.0442   -2.9822   34.3853 O   0  0  0  0  0  0  0  0  0  0  0  0
    0.6188   -3.2795   33.3779 C   0  0  0  0  0  0  0  0  0  0  0  0
    0.6959   -4.7475   32.9018 C   0  0  0  0  0  0  0  0  0  0  0  0
    1.1451   -4.9823   31.5051 C   0  0  0  0  0  0  0  0  0  0  0  0
    0.7202   -6.0085   30.7581 C   0  0  0  0  0  0  0  0  0  0  0  0
   -0.1498   -6.9476   31.3342 C   0  0  0  0  0  0  0  0  0  0  0  0
   -0.8213   -7.9475   30.8109 N   0  0  0  0  0  0  0  0  0  0  0  0
   -1.5040   -8.5534   31.8259 N   0  0  0  0  0  0  0  0  0  0  0  0
   -1.2258   -7.9114   32.9402 C   0  0  0  0  0  0  0  0  0  0  0  0
   -0.3960   -6.8440   32.6974 N   0  0  0  0  0  0  0  0  0  0  0  0
    0.0445   -5.7719   33.5268 C   0  0  0  0  0  0  0  0  0  0  0  0
   -0.5081   -5.8380   35.1857 S   0  0  0  0  0  0  0  0  0  0  0  0
    0.8490   -5.2371   36.2175 C   0  0  0  0  0  0  0  0  0  0  0  0
    2.2176   -5.7434   35.8499 C   0  0  0  0  0  0  0  0  0  0  0  0
    3.2159   -4.8500   35.4499 C   0  0  0  0  0  0  0  0  0  0  0  0
    4.4638   -5.3488   35.1175 C   0  0  0  0  0  0  0  0  0  0  0  0
    4.7818   -6.6585   35.1699 N   0  0  0  0  0  0  0  0  0  0  0  0
    3.8208   -7.4998   35.6069 C   0  0  0  0  0  0  0  0  0  0  0  0
    2.5386   -7.0997   35.9435 C   0  0  0  0  0  0  0  0  0  0  0  0
    1.2280   -2.4636   32.3898 N   0  0  0  0  0  0  0  0  0  0  0  0
    2.7264   -2.2224   32.7392 C   0  0  0  0  0  0  0  0  0  0  0  0
    3.7069   -1.6963   31.6390 C   0  0  0  0  0  0  0  0  0  0  0  0
    3.1894   -0.4480   30.9096 C   0  0  0  0  0  0  0  0  0  0  0  0
    1.7085   -0.7134   30.7845 C   0  0  0  0  0  0  0  0  0  0  0  0
    0.7532    0.1032   29.9720 C   0  0  0  0  0  0  0  0  0  0  0  0
    1.0271    1.3420   29.4041 C   0  0  0  0  0  0  0  0  0  0  0  0
    0.1050    1.9125   28.5192 C   0  0  0  0  0  0  0  0  0  0  0  0
   -1.0843    1.2457   28.1893 C   0  0  0  0  0  0  0  0  0  0  0  0
   -2.0383    1.7989   27.1749 C   0  0  0  0  0  0  0  0  0  0  0  0
   -2.2336    0.8815   26.1095 O   0  0  0  0  0  0  0  0  0  0  0  0
   -1.3722    0.0261   28.7952 C   0  0  0  0  0  0  0  0  0  0  0  0
   -0.4693   -0.5315   29.6762 C   0  0  0  0  0  0  0  0  0  0  0  0
    1.2515   -0.9926   32.2300 C   0  0  0  0  0  0  0  0  0  0  0  0
    1.8259   -4.2770   31.0403 H   0  0  0  0  0  0  0  0  0  0  0  0
    1.0345   -6.1331   29.7292 H   0  0  0  0  0  0  0  0  0  0  0  0
   -1.6146   -8.1563   33.9179 H   0  0  0  0  0  0  0  0  0  0  0  0
    0.8394   -4.1452   36.2593 H   0  0  0  0  0  0  0  0  0  0  0  0
    0.6377   -5.5563   37.2457 H   0  0  0  0  0  0  0  0  0  0  0  0
    3.0295   -3.7819   35.4117 H   0  0  0  0  0  0  0  0  0  0  0  0
    5.2669   -4.6892   34.8014 H   0  0  0  0  0  0  0  0  0  0  0  0
    4.1208   -8.5406   35.6867 H   0  0  0  0  0  0  0  0  0  0  0  0
    1.8099   -7.8266   36.2917 H   0  0  0  0  0  0  0  0  0  0  0  0
    2.8500   -1.7086   33.7092 H   0  0  0  0  0  0  0  0  0  0  0  0
    3.1082   -3.2268   32.9737 H   0  0  0  0  0  0  0  0  0  0  0  0
    3.8442   -2.4972   30.9002 H   0  0  0  0  0  0  0  0  0  0  0  0
    4.6916   -1.5015   32.0775 H   0  0  0  0  0  0  0  0  0  0  0  0
    3.3860    0.4579   31.4944 H   0  0  0  0  0  0  0  0  0  0  0  0
    3.6789   -0.3325   29.9370 H   0  0  0  0  0  0  0  0  0  0  0  0
    1.6802   -1.6658   30.2218 H   0  0  0  0  0  0  0  0  0  0  0  0
    1.9621    1.8581   29.6025 H   0  0  0  0  0  0  0  0  0  0  0  0
    0.3352    2.8724   28.0600 H   0  0  0  0  0  0  0  0  0  0  0  0
   -3.0055    2.0083   27.6330 H   0  0  0  0  0  0  0  0  0  0  0  0
   -1.6660    2.7343   26.7452 H   0  0  0  0  0  0  0  0  0  0  0  0
   -1.8462    0.0119   26.3281 H   0  0  0  0  0  0  0  0  0  0  0  0
   -2.2705   -0.5285   28.5399 H   0  0  0  0  0  0  0  0  0  0  0  0
   -0.6985   -1.5140   30.0878 H   0  0  0  0  0  0  0  0  0  0  0  0
    0.1815   -0.7449   32.3087 H   0  0  0  0  0  0  0  0  0  0  0  0
    1.6495   -0.3469   33.0325 H   0  0  0  0  0  0  0  0  0  0  0  0
  1  2  2  0
  2  3  1  0
  3  4  1  0
  4  5  2  0
  5  6  1  0
  6  7  2  0
  7  8  1  0
  8  9  2  0
  9 10  1  0
 10 11  1  0
 11 12  1  0
 12 13  1  0
 13 14  1  0
 14 15  2  0
 15 16  1  0
 16 17  2  0
 17 18  1  0
 18 19  2  0
  2 20  1  0
 20 21  1  0
 21 22  1  0
 22 23  1  0
 23 24  1  0
 24 25  1  0
 25 26  2  0
 26 27  1  0
 27 28  2  0
 28 29  1  0
 29 30  1  0
 28 31  1  0
 31 32  2  0
 24 33  1  0
 11  3  2  0
 19 14  1  0
 33 20  1  0
 10  6  1  0
 32 25  1  0
  4 34  1  0
  5 35  1  0
  9 36  1  0
 13 37  1  0
 13 38  1  0
 15 39  1  0
 16 40  1  0
 18 41  1  0
 19 42  1  0
 21 43  1  0
 21 44  1  0
 22 45  1  0
 22 46  1  0
 23 47  1  0
 23 48  1  0
 24 49  1  0
 26 50  1  0
 27 51  1  0
 29 52  1  0
 29 53  1  0
 30 54  1  0
 31 55  1  0
 32 56  1  0
 33 57  1  0
 33 58  1  0
M  END
>  <Energy>  (119) 
180.65310077042778

>  <compound_id>  (119) 
2376

>  <target_id>  (119) 
1

>  <reference_id>  (119) 
131

>  <inspiration_ids>  (119) 
[165, 131]

>  <energy_score>  (119) 
54.06869968444596

>  <distance_score>  (119) 
2.4191806602983386

>  <path>  (119) 
/opt/xchem-fragalysis-2/maxwin/BulkDock/SCRATCH/505736/C2376-P131/C2376-P131.minimised.mol

>  <scratch_subdir>  (119) 
/opt/xchem-fragalysis-2/maxwin/BulkDock/SCRATCH/505736/C2376-P131

>  <fragmenstein_runtime>  (119) 
8.468265533447266

>  <fragmenstein_outcome>  (119) 
too moved

>  <fragmenstein_mode>  (119) 
expansion

>  <fragmenstein_error>  (119) 


$$$$
C2376-P165
     RDKit          3D

 58 62  0  0  0  0  0  0  0  0999 V2000
    3.8924   -5.4008   33.6196 O   0  0  0  0  0  0  0  0  0  0  0  0
    3.1729   -4.7731   32.9784 C   0  0  0  0  0  0  0  0  0  0  0  0
    1.8449   -5.3232   32.4530 C   0  0  0  0  0  0  0  0  0  0  0  0
    1.4165   -4.9222   31.0998 C   0  0  0  0  0  0  0  0  0  0  0  0
    0.3957   -5.5082   30.4581 C   0  0  0  0  0  0  0  0  0  0  0  0
   -0.3015   -6.5603   31.0860 C   0  0  0  0  0  0  0  0  0  0  0  0
   -1.2279   -7.3858   30.6537 N   0  0  0  0  0  0  0  0  0  0  0  0
   -1.6353   -8.1456   31.7141 N   0  0  0  0  0  0  0  0  0  0  0  0
   -0.9182   -7.7913   32.7575 C   0  0  0  0  0  0  0  0  0  0  0  0
    0.0102   -6.8409   32.4056 N   0  0  0  0  0  0  0  0  0  0  0  0
    1.0953   -6.2595   33.1017 C   0  0  0  0  0  0  0  0  0  0  0  0
    1.4599   -6.9201   34.6733 S   0  0  0  0  0  0  0  0  0  0  0  0
    0.5031   -5.8233   35.7644 C   0  0  0  0  0  0  0  0  0  0  0  0
    1.3573   -4.7651   36.4092 C   0  0  0  0  0  0  0  0  0  0  0  0
    0.9683   -3.4244   36.3733 C   0  0  0  0  0  0  0  0  0  0  0  0
    1.7692   -2.4846   37.0033 C   0  0  0  0  0  0  0  0  0  0  0  0
    2.9182   -2.7821   37.6459 N   0  0  0  0  0  0  0  0  0  0  0  0
    3.2659   -4.0836   37.6929 C   0  0  0  0  0  0  0  0  0  0  0  0
    2.5256   -5.0961   37.1080 C   0  0  0  0  0  0  0  0  0  0  0  0
    3.2817   -3.3108   32.3518 N   0  0  0  0  0  0  0  0  0  0  0  0
    4.1320   -2.3053   32.4324 C   0  0  0  0  0  0  0  0  0  0  0  0
    3.4194   -1.8654   34.0445 C   0  0  0  0  0  0  0  0  0  0  0  0
    4.5421   -1.1285   34.7103 C   0  0  0  0  0  0  0  0  0  0  0  0
    5.6918   -1.6523   33.8865 C   0  0  0  0  0  0  0  0  0  0  0  0
    6.6090   -2.6587   34.5432 C   0  0  0  0  0  0  0  0  0  0  0  0
    7.9985   -2.5142   34.4113 C   0  0  0  0  0  0  0  0  0  0  0  0
    8.8749   -3.4387   34.9864 C   0  0  0  0  0  0  0  0  0  0  0  0
    8.3813   -4.5273   35.7122 C   0  0  0  0  0  0  0  0  0  0  0  0
    9.3197   -5.5452   36.2995 C   0  0  0  0  0  0  0  0  0  0  0  0
    9.5731   -6.5878   35.3671 O   0  0  0  0  0  0  0  0  0  0  0  0
    6.9972   -4.6837   35.8338 C   0  0  0  0  0  0  0  0  0  0  0  0
    6.1238   -3.7561   35.2600 C   0  0  0  0  0  0  0  0  0  0  0  0
    4.9311   -2.2654   32.4203 C   0  0  0  0  0  0  0  0  0  0  0  0
    1.9423   -4.1156   30.5975 H   0  0  0  0  0  0  0  0  0  0  0  0
    0.0842   -5.1716   29.4768 H   0  0  0  0  0  0  0  0  0  0  0  0
   -1.0162   -8.2004   33.7530 H   0  0  0  0  0  0  0  0  0  0  0  0
   -0.3288   -5.3771   35.2079 H   0  0  0  0  0  0  0  0  0  0  0  0
    0.0573   -6.4369   36.5557 H   0  0  0  0  0  0  0  0  0  0  0  0
    0.0592   -3.1077   35.8717 H   0  0  0  0  0  0  0  0  0  0  0  0
    1.5011   -1.4318   37.0003 H   0  0  0  0  0  0  0  0  0  0  0  0
    4.1843   -4.2994   38.2310 H   0  0  0  0  0  0  0  0  0  0  0  0
    2.8655   -6.1232   37.1946 H   0  0  0  0  0  0  0  0  0  0  0  0
    3.5582   -2.1370   31.3055 H   0  0  0  0  0  0  0  0  0  0  0  0
    3.5965   -1.1291   32.2574 H   0  0  0  0  0  0  0  0  0  0  0  0
    3.1834   -2.7753   34.6038 H   0  0  0  0  0  0  0  0  0  0  0  0
    2.5003   -1.2766   33.9264 H   0  0  0  0  0  0  0  0  0  0  0  0
    4.4204   -0.0513   34.5514 H   0  0  0  0  0  0  0  0  0  0  0  0
    4.6143   -1.3090   35.7853 H   0  0  0  0  0  0  0  0  0  0  0  0
    6.2983   -0.7974   33.5545 H   0  0  0  0  0  0  0  0  0  0  0  0
    8.4178   -1.6767   33.8573 H   0  0  0  0  0  0  0  0  0  0  0  0
    9.9477   -3.3048   34.8622 H   0  0  0  0  0  0  0  0  0  0  0  0
   10.2738   -5.0846   36.5767 H   0  0  0  0  0  0  0  0  0  0  0  0
    8.8948   -5.9856   37.2077 H   0  0  0  0  0  0  0  0  0  0  0  0
    8.9765   -6.4576   34.6099 H   0  0  0  0  0  0  0  0  0  0  0  0
    6.5834   -5.5346   36.3711 H   0  0  0  0  0  0  0  0  0  0  0  0
    5.0554   -3.9158   35.3755 H   0  0  0  0  0  0  0  0  0  0  0  0
    5.7034   -3.1977   32.2610 H   0  0  0  0  0  0  0  0  0  0  0  0
    5.4175   -1.6769   31.4155 H   0  0  0  0  0  0  0  0  0  0  0  0
  1  2  2  0
  2  3  1  0
  3  4  1  0
  4  5  2  0
  5  6  1  0
  6  7  2  0
  7  8  1  0
  8  9  2  0
  9 10  1  0
 10 11  1  0
 11 12  1  0
 12 13  1  0
 13 14  1  0
 14 15  2  0
 15 16  1  0
 16 17  2  0
 17 18  1  0
 18 19  2  0
  2 20  1  0
 20 21  1  0
 21 22  1  0
 22 23  1  0
 23 24  1  0
 24 25  1  0
 25 26  2  0
 26 27  1  0
 27 28  2  0
 28 29  1  0
 29 30  1  0
 28 31  1  0
 31 32  2  0
 24 33  1  0
 11  3  2  0
 19 14  1  0
 33 20  1  0
 10  6  1  0
 32 25  1  0
  4 34  1  0
  5 35  1  0
  9 36  1  0
 13 37  1  0
 13 38  1  0
 15 39  1  0
 16 40  1  0
 18 41  1  0
 19 42  1  0
 21 43  1  0
 21 44  1  0
 22 45  1  0
 22 46  1  0
 23 47  1  0
 23 48  1  0
 24 49  1  0
 26 50  1  0
 27 51  1  0
 29 52  1  0
 29 53  1  0
 30 54  1  0
 31 55  1  0
 32 56  1  0
 33 57  1  0
 33 58  1  0
M  END
>  <Energy>  (120) 
846.49010661944692

>  <compound_id>  (120) 
2376

>  <target_id>  (120) 
1

>  <reference_id>  (120) 
165

>  <inspiration_ids>  (120) 
[165, 133]

>  <energy_score>  (120) 
719.9057055334686

>  <distance_score>  (120) 
1.8634053768708578

>  <path>  (120) 
/opt/xchem-fragalysis-2/maxwin/BulkDock/SCRATCH/505736/C2376-P165/C2376-P165.minimised.mol

>  <scratch_subdir>  (120) 
/opt/xchem-fragalysis-2/maxwin/BulkDock/SCRATCH/505736/C2376-P165

>  <fragmenstein_runtime>  (120) 
5.441205024719238

>  <fragmenstein_outcome>  (120) 
too moved

>  <fragmenstein_mode>  (120) 
expansion

>  <fragmenstein_error>  (120) 


$$$$
C2376-P133
     RDKit          3D

 58 62  0  0  0  0  0  0  0  0999 V2000
    4.1361   -4.6496   32.3848 O   0  0  0  0  0  0  0  0  0  0  0  0
    3.1416   -4.0708   32.3206 C   0  0  0  0  0  0  0  0  0  0  0  0
    1.8284   -4.7630   32.0470 C   0  0  0  0  0  0  0  0  0  0  0  0
    1.1980   -4.4586   30.7572 C   0  0  0  0  0  0  0  0  0  0  0  0
    0.1977   -5.2025   30.2615 C   0  0  0  0  0  0  0  0  0  0  0  0
   -0.2867   -6.2995   31.0123 C   0  0  0  0  0  0  0  0  0  0  0  0
   -1.1467   -7.2532   30.7304 N   0  0  0  0  0  0  0  0  0  0  0  0
   -1.3440   -7.9867   31.8681 N   0  0  0  0  0  0  0  0  0  0  0  0
   -0.5658   -7.4902   32.8042 C   0  0  0  0  0  0  0  0  0  0  0  0
    0.2031   -6.4706   32.2982 N   0  0  0  0  0  0  0  0  0  0  0  0
    1.2920   -5.7417   32.8196 C   0  0  0  0  0  0  0  0  0  0  0  0
    1.9775   -6.2481   34.3287 S   0  0  0  0  0  0  0  0  0  0  0  0
    0.8806   -5.3999   35.5136 C   0  0  0  0  0  0  0  0  0  0  0  0
    1.6367   -5.1278   36.7837 C   0  0  0  0  0  0  0  0  0  0  0  0
    1.9338   -3.8186   37.1635 C   0  0  0  0  0  0  0  0  0  0  0  0
    2.7035   -3.6166   38.2959 C   0  0  0  0  0  0  0  0  0  0  0  0
    3.1975   -4.6147   39.0592 N   0  0  0  0  0  0  0  0  0  0  0  0
    2.8759   -5.8718   38.6925 C   0  0  0  0  0  0  0  0  0  0  0  0
    2.1006   -6.1758   37.5870 C   0  0  0  0  0  0  0  0  0  0  0  0
    2.8020   -2.5493   32.3668 N   0  0  0  0  0  0  0  0  0  0  0  0
    3.4880   -1.4440   32.3763 C   0  0  0  0  0  0  0  0  0  0  0  0
    2.1291   -0.4359   33.0932 C   0  0  0  0  0  0  0  0  0  0  0  0
    2.5128   -0.4396   34.5556 C   0  0  0  0  0  0  0  0  0  0  0  0
    4.0104   -0.5802   34.4030 C   0  0  0  0  0  0  0  0  0  0  0  0
    4.6903   -1.3608   35.4962 C   0  0  0  0  0  0  0  0  0  0  0  0
    5.1204   -0.6747   36.6435 C   0  0  0  0  0  0  0  0  0  0  0  0
    5.7738   -1.3447   37.6808 C   0  0  0  0  0  0  0  0  0  0  0  0
    5.9997   -2.7222   37.6017 C   0  0  0  0  0  0  0  0  0  0  0  0
    6.6921   -3.4480   38.7232 C   0  0  0  0  0  0  0  0  0  0  0  0
    8.0982   -3.2432   38.6489 O   0  0  0  0  0  0  0  0  0  0  0  0
    5.5796   -3.4094   36.4591 C   0  0  0  0  0  0  0  0  0  0  0  0
    4.9205   -2.7377   35.4254 C   0  0  0  0  0  0  0  0  0  0  0  0
    4.1404   -1.1686   32.7704 C   0  0  0  0  0  0  0  0  0  0  0  0
    1.5707   -3.6054   30.1951 H   0  0  0  0  0  0  0  0  0  0  0  0
   -0.2639   -4.9599   29.3107 H   0  0  0  0  0  0  0  0  0  0  0  0
   -0.5128   -7.8441   33.8242 H   0  0  0  0  0  0  0  0  0  0  0  0
    0.5141   -4.4630   35.0792 H   0  0  0  0  0  0  0  0  0  0  0  0
    0.0084   -6.0281   35.7243 H   0  0  0  0  0  0  0  0  0  0  0  0
    1.5925   -2.9661   36.5888 H   0  0  0  0  0  0  0  0  0  0  0  0
    2.9628   -2.6131   38.6209 H   0  0  0  0  0  0  0  0  0  0  0  0
    3.2677   -6.6561   39.3336 H   0  0  0  0  0  0  0  0  0  0  0  0
    1.8832   -7.2127   37.3503 H   0  0  0  0  0  0  0  0  0  0  0  0
    3.8851   -1.7773   31.1726 H   0  0  0  0  0  0  0  0  0  0  0  0
    2.9014   -0.8614   31.4378 H   0  0  0  0  0  0  0  0  0  0  0  0
    1.1439   -0.8751   32.8982 H   0  0  0  0  0  0  0  0  0  0  0  0
    2.2024    0.5848   32.6892 H   0  0  0  0  0  0  0  0  0  0  0  0
    2.2093    0.4685   35.0832 H   0  0  0  0  0  0  0  0  0  0  0  0
    2.0673   -1.3027   35.0582 H   0  0  0  0  0  0  0  0  0  0  0  0
    4.4811    0.4131   34.3494 H   0  0  0  0  0  0  0  0  0  0  0  0
    4.9550    0.3971   36.7385 H   0  0  0  0  0  0  0  0  0  0  0  0
    6.1009   -0.7887   38.5576 H   0  0  0  0  0  0  0  0  0  0  0  0
    6.3342   -3.0923   39.6950 H   0  0  0  0  0  0  0  0  0  0  0  0
    6.4977   -4.5246   38.6757 H   0  0  0  0  0  0  0  0  0  0  0  0
    8.2980   -2.9232   37.7528 H   0  0  0  0  0  0  0  0  0  0  0  0
    5.7348   -4.4838   36.3762 H   0  0  0  0  0  0  0  0  0  0  0  0
    4.5908   -3.3269   34.5761 H   0  0  0  0  0  0  0  0  0  0  0  0
    5.1726   -1.8083   32.9046 H   0  0  0  0  0  0  0  0  0  0  0  0
    4.6597   -0.2219   32.0634 H   0  0  0  0  0  0  0  0  0  0  0  0
  1  2  2  0
  2  3  1  0
  3  4  1  0
  4  5  2  0
  5  6  1  0
  6  7  2  0
  7  8  1  0
  8  9  2  0
  9 10  1  0
 10 11  1  0
 11 12  1  0
 12 13  1  0
 13 14  1  0
 14 15  2  0
 15 16  1  0
 16 17  2  0
 17 18  1  0
 18 19  2  0
  2 20  1  0
 20 21  1  0
 21 22  1  0
 22 23  1  0
 23 24  1  0
 24 25  1  0
 25 26  2  0
 26 27  1  0
 27 28  2  0
 28 29  1  0
 29 30  1  0
 28 31  1  0
 31 32  2  0
 24 33  1  0
 11  3  2  0
 19 14  1  0
 33 20  1  0
 10  6  1  0
 32 25  1  0
  4 34  1  0
  5 35  1  0
  9 36  1  0
 13 37  1  0
 13 38  1  0
 15 39  1  0
 16 40  1  0
 18 41  1  0
 19 42  1  0
 21 43  1  0
 21 44  1  0
 22 45  1  0
 22 46  1  0
 23 47  1  0
 23 48  1  0
 24 49  1  0
 26 50  1  0
 27 51  1  0
 29 52  1  0
 29 53  1  0
 30 54  1  0
 31 55  1  0
 32 56  1  0
 33 57  1  0
 33 58  1  0
M  END
>  <Energy>  (121) 
847.17547242142257

>  <compound_id>  (121) 
2376

>  <target_id>  (121) 
1

>  <reference_id>  (121) 
133

>  <inspiration_ids>  (121) 
[165, 133]

>  <energy_score>  (121) 
720.5910713354397

>  <distance_score>  (121) 
1.9984847312682377

>  <path>  (121) 
/opt/xchem-fragalysis-2/maxwin/BulkDock/SCRATCH/505736/C2376-P133/C2376-P133.minimised.mol

>  <scratch_subdir>  (121) 
/opt/xchem-fragalysis-2/maxwin/BulkDock/SCRATCH/505736/C2376-P133

>  <fragmenstein_runtime>  (121) 
4.946368217468262

>  <fragmenstein_outcome>  (121) 
too moved

>  <fragmenstein_mode>  (121) 
expansion

>  <fragmenstein_error>  (121) 


$$$$
C2405-P165
     RDKit          3D

 47 51  0  0  0  0  0  0  0  0999 V2000
    1.1821   -7.0145   34.7110 O   0  0  0  0  0  0  0  0  0  0  0  0
    0.2169   -5.9359   34.6151 S   0  0  0  0  0  0  0  0  0  0  0  0
   -1.1375   -6.1304   35.0992 O   0  0  0  0  0  0  0  0  0  0  0  0
    0.7831   -4.3875   35.3259 C   0  0  0  0  0  0  0  0  0  0  0  0
    2.3032   -4.3923   35.4763 C   0  0  0  0  0  0  0  0  0  0  0  0
    3.1472   -3.4281   34.8979 C   0  0  0  0  0  0  0  0  0  0  0  0
    4.5386   -3.5525   34.9505 C   0  0  0  0  0  0  0  0  0  0  0  0
    5.1210   -4.6209   35.6186 C   0  0  0  0  0  0  0  0  0  0  0  0
    4.3128   -5.5381   36.2767 C   0  0  0  0  0  0  0  0  0  0  0  0
    2.9233   -5.4063   36.2318 C   0  0  0  0  0  0  0  0  0  0  0  0
    0.1223   -3.3197   34.4034 C   0  0  0  0  0  0  0  0  0  0  0  0
   -0.4742   -3.8881   33.0410 C   0  0  0  0  0  0  0  0  0  0  0  0
   -0.5398   -2.7931   31.9196 C   0  0  0  0  0  0  0  0  0  0  0  0
   -0.9258   -3.0474   30.5948 C   0  0  0  0  0  0  0  0  0  0  0  0
   -0.9780   -2.0169   29.6429 C   0  0  0  0  0  0  0  0  0  0  0  0
   -0.6961   -0.7312   29.9190 N   0  0  0  0  0  0  0  0  0  0  0  0
   -0.3874   -0.4621   31.1942 C   0  0  0  0  0  0  0  0  0  0  0  0
   -0.3217   -1.4288   32.1992 C   0  0  0  0  0  0  0  0  0  0  0  0
    0.1773   -5.3378   32.8627 C   0  0  0  0  0  0  0  0  0  0  0  0
    1.6477   -5.2544   32.3694 C   0  0  0  0  0  0  0  0  0  0  0  0
    1.8075   -4.9892   30.8863 C   0  0  0  0  0  0  0  0  0  0  0  0
    0.9296   -5.8585   30.0120 C   0  0  0  0  0  0  0  0  0  0  0  0
   -0.1504   -6.5777   30.7278 C   0  0  0  0  0  0  0  0  0  0  0  0
   -0.8777   -7.5707   30.2653 N   0  0  0  0  0  0  0  0  0  0  0  0
   -1.6527   -8.0353   31.2890 N   0  0  0  0  0  0  0  0  0  0  0  0
   -1.3731   -7.3207   32.3541 C   0  0  0  0  0  0  0  0  0  0  0  0
   -0.5162   -6.3113   32.0233 N   0  0  0  0  0  0  0  0  0  0  0  0
    0.3509   -4.3090   36.3308 H   0  0  0  0  0  0  0  0  0  0  0  0
    2.7709   -2.5680   34.3536 H   0  0  0  0  0  0  0  0  0  0  0  0
    5.1700   -2.8094   34.4682 H   0  0  0  0  0  0  0  0  0  0  0  0
    6.2027   -4.7195   35.6581 H   0  0  0  0  0  0  0  0  0  0  0  0
    4.7601   -6.3569   36.8356 H   0  0  0  0  0  0  0  0  0  0  0  0
    2.3286   -6.1458   36.7701 H   0  0  0  0  0  0  0  0  0  0  0  0
    0.8111   -2.4963   34.2397 H   0  0  0  0  0  0  0  0  0  0  0  0
   -0.7201   -2.8762   34.9540 H   0  0  0  0  0  0  0  0  0  0  0  0
   -1.5354   -4.0735   33.2437 H   0  0  0  0  0  0  0  0  0  0  0  0
   -1.1920   -4.0369   30.2604 H   0  0  0  0  0  0  0  0  0  0  0  0
   -1.2682   -2.2211   28.6127 H   0  0  0  0  0  0  0  0  0  0  0  0
   -0.1927    0.5846   31.4105 H   0  0  0  0  0  0  0  0  0  0  0  0
   -0.1086   -1.0565   33.1947 H   0  0  0  0  0  0  0  0  0  0  0  0
    2.1756   -6.1894   32.5947 H   0  0  0  0  0  0  0  0  0  0  0  0
    2.1951   -4.4654   32.8730 H   0  0  0  0  0  0  0  0  0  0  0  0
    2.8577   -5.1324   30.6016 H   0  0  0  0  0  0  0  0  0  0  0  0
    1.6197   -3.9329   30.6728 H   0  0  0  0  0  0  0  0  0  0  0  0
    1.5634   -6.5890   29.5004 H   0  0  0  0  0  0  0  0  0  0  0  0
    0.4994   -5.2204   29.2377 H   0  0  0  0  0  0  0  0  0  0  0  0
   -1.7734   -7.5269   33.3370 H   0  0  0  0  0  0  0  0  0  0  0  0
  1  2  2  0
  2  3  2  0
  2  4  1  0
  4  5  1  0
  5  6  2  0
  6  7  1  0
  7  8  2  0
  8  9  1  0
  9 10  2  0
  4 11  1  0
 11 12  1  0
 12 13  1  0
 13 14  2  0
 14 15  1  0
 15 16  2  0
 16 17  1  0
 17 18  2  0
 12 19  1  0
 19 20  1  0
 20 21  1  0
 21 22  1  0
 22 23  1  0
 23 24  2  0
 24 25  1  0
 25 26  2  0
 26 27  1  0
 19  2  1  0
 27 23  1  0
 10  5  1  0
 18 13  1  0
 27 19  1  0
  4 28  1  0
  6 29  1  0
  7 30  1  0
  8 31  1  0
  9 32  1  0
 10 33  1  0
 11 34  1  0
 11 35  1  0
 12 36  1  0
 14 37  1  0
 15 38  1  0
 17 39  1  0
 18 40  1  0
 20 41  1  0
 20 42  1  0
 21 43  1  0
 21 44  1  0
 22 45  1  0
 22 46  1  0
 26 47  1  0
M  END
>  <Energy>  (122) 
95.794022448321016

>  <compound_id>  (122) 
2405

>  <target_id>  (122) 
1

>  <reference_id>  (122) 
165

>  <inspiration_ids>  (122) 
[165, 134]

>  <energy_score>  (122) 
-11.400174396441003

>  <distance_score>  (122) 
1.326496661899928

>  <path>  (122) 
/opt/xchem-fragalysis-2/maxwin/BulkDock/SCRATCH/505736/C2405-P165/C2405-P165.minimised.mol

>  <scratch_subdir>  (122) 
/opt/xchem-fragalysis-2/maxwin/BulkDock/SCRATCH/505736/C2405-P165

>  <fragmenstein_runtime>  (122) 
7.035815954208374

>  <fragmenstein_outcome>  (122) 
too moved

>  <fragmenstein_mode>  (122) 
expansion

>  <fragmenstein_error>  (122) 


$$$$
C2405-P134
     RDKit          3D

 47 51  0  0  0  0  0  0  0  0999 V2000
    1.2325   -6.9404   34.6755 O   0  0  0  0  0  0  0  0  0  0  0  0
    0.2042   -5.9175   34.6260 S   0  0  0  0  0  0  0  0  0  0  0  0
   -1.1261   -6.2048   35.1302 O   0  0  0  0  0  0  0  0  0  0  0  0
    0.6865   -4.3603   35.3736 C   0  0  0  0  0  0  0  0  0  0  0  0
    2.2018   -4.2514   35.4322 C   0  0  0  0  0  0  0  0  0  0  0  0
    2.9226   -3.2080   34.8349 C   0  0  0  0  0  0  0  0  0  0  0  0
    4.3205   -3.2262   34.7971 C   0  0  0  0  0  0  0  0  0  0  0  0
    5.0275   -4.2648   35.3926 C   0  0  0  0  0  0  0  0  0  0  0  0
    4.3392   -5.2611   36.0709 C   0  0  0  0  0  0  0  0  0  0  0  0
    2.9448   -5.2353   36.1162 C   0  0  0  0  0  0  0  0  0  0  0  0
   -0.1426   -3.3305   34.5505 C   0  0  0  0  0  0  0  0  0  0  0  0
   -0.5429   -3.8313   33.0948 C   0  0  0  0  0  0  0  0  0  0  0  0
   -0.4737   -2.7286   31.9925 C   0  0  0  0  0  0  0  0  0  0  0  0
   -1.1942   -2.8355   30.7893 C   0  0  0  0  0  0  0  0  0  0  0  0
   -1.1329   -1.8283   29.8176 C   0  0  0  0  0  0  0  0  0  0  0  0
   -0.4324   -0.6916   29.9723 N   0  0  0  0  0  0  0  0  0  0  0  0
    0.2455   -0.5705   31.1237 C   0  0  0  0  0  0  0  0  0  0  0  0
    0.2614   -1.5410   32.1285 C   0  0  0  0  0  0  0  0  0  0  0  0
    0.1020   -5.2797   32.8964 C   0  0  0  0  0  0  0  0  0  0  0  0
    1.5404   -5.1664   32.3295 C   0  0  0  0  0  0  0  0  0  0  0  0
    1.6174   -4.8290   30.8479 C   0  0  0  0  0  0  0  0  0  0  0  0
    0.6580   -5.6156   29.9802 C   0  0  0  0  0  0  0  0  0  0  0  0
   -0.3236   -6.4312   30.7268 C   0  0  0  0  0  0  0  0  0  0  0  0
   -1.0106   -7.4535   30.2676 N   0  0  0  0  0  0  0  0  0  0  0  0
   -1.6865   -8.0070   31.3142 N   0  0  0  0  0  0  0  0  0  0  0  0
   -1.3871   -7.3167   32.3901 C   0  0  0  0  0  0  0  0  0  0  0  0
   -0.6123   -6.2432   32.0546 N   0  0  0  0  0  0  0  0  0  0  0  0
    0.3184   -4.3632   36.4069 H   0  0  0  0  0  0  0  0  0  0  0  0
    2.4302   -2.3727   34.3502 H   0  0  0  0  0  0  0  0  0  0  0  0
    4.8614   -2.4229   34.3013 H   0  0  0  0  0  0  0  0  0  0  0  0
    6.1140   -4.2775   35.3597 H   0  0  0  0  0  0  0  0  0  0  0  0
    4.8837   -6.0567   36.5740 H   0  0  0  0  0  0  0  0  0  0  0  0
    2.4427   -6.0319   36.6675 H   0  0  0  0  0  0  0  0  0  0  0  0
    0.2976   -2.3370   34.6045 H   0  0  0  0  0  0  0  0  0  0  0  0
   -1.0985   -3.2076   35.0832 H   0  0  0  0  0  0  0  0  0  0  0  0
   -1.6212   -4.0118   33.1598 H   0  0  0  0  0  0  0  0  0  0  0  0
   -1.8018   -3.7020   30.5838 H   0  0  0  0  0  0  0  0  0  0  0  0
   -1.6655   -1.9253   28.8724 H   0  0  0  0  0  0  0  0  0  0  0  0
    0.8107    0.3523   31.2290 H   0  0  0  0  0  0  0  0  0  0  0  0
    0.8709   -1.3168   32.9936 H   0  0  0  0  0  0  0  0  0  0  0  0
    2.0651   -6.1127   32.4866 H   0  0  0  0  0  0  0  0  0  0  0  0
    2.1243   -4.4124   32.8447 H   0  0  0  0  0  0  0  0  0  0  0  0
    2.6396   -4.9841   30.4861 H   0  0  0  0  0  0  0  0  0  0  0  0
    1.4679   -3.7595   30.6850 H   0  0  0  0  0  0  0  0  0  0  0  0
    1.2594   -6.2772   29.3519 H   0  0  0  0  0  0  0  0  0  0  0  0
    0.1320   -4.9265   29.3133 H   0  0  0  0  0  0  0  0  0  0  0  0
   -1.7173   -7.5893   33.3831 H   0  0  0  0  0  0  0  0  0  0  0  0
  1  2  2  0
  2  3  2  0
  2  4  1  0
  4  5  1  0
  5  6  2  0
  6  7  1  0
  7  8  2  0
  8  9  1  0
  9 10  2  0
  4 11  1  0
 11 12  1  0
 12 13  1  0
 13 14  2  0
 14 15  1  0
 15 16  2  0
 16 17  1  0
 17 18  2  0
 12 19  1  0
 19 20  1  0
 20 21  1  0
 21 22  1  0
 22 23  1  0
 23 24  2  0
 24 25  1  0
 25 26  2  0
 26 27  1  0
 19  2  1  0
 27 23  1  0
 10  5  1  0
 18 13  1  0
 27 19  1  0
  4 28  1  0
  6 29  1  0
  7 30  1  0
  8 31  1  0
  9 32  1  0
 10 33  1  0
 11 34  1  0
 11 35  1  0
 12 36  1  0
 14 37  1  0
 15 38  1  0
 17 39  1  0
 18 40  1  0
 20 41  1  0
 20 42  1  0
 21 43  1  0
 21 44  1  0
 22 45  1  0
 22 46  1  0
 26 47  1  0
M  END
>  <Energy>  (123) 
93.744948701194858

>  <compound_id>  (123) 
2405

>  <target_id>  (123) 
1

>  <reference_id>  (123) 
134

>  <inspiration_ids>  (123) 
[165, 134]

>  <energy_score>  (123) 
-13.449248143568695

>  <distance_score>  (123) 
1.397617185864505

>  <path>  (123) 
/opt/xchem-fragalysis-2/maxwin/BulkDock/SCRATCH/505736/C2405-P134/C2405-P134.minimised.mol

>  <scratch_subdir>  (123) 
/opt/xchem-fragalysis-2/maxwin/BulkDock/SCRATCH/505736/C2405-P134

>  <fragmenstein_runtime>  (123) 
7.232067584991455

>  <fragmenstein_outcome>  (123) 
too moved

>  <fragmenstein_mode>  (123) 
expansion

>  <fragmenstein_error>  (123) 


$$$$
C2405-P165
     RDKit          2D

  0  0  0  0  0  0  0  0  0  0999 V2000
M  END
>  <compound_id>  (124) 
2405

>  <target_id>  (124) 
1

>  <reference_id>  (124) 
165

>  <inspiration_ids>  (124) 
[165, 135]

>  <energy_score>  (124) 
nan

>  <distance_score>  (124) 
nan

>  <path>  (124) 
/opt/xchem-fragalysis-2/maxwin/BulkDock/SCRATCH/505736/C2405-P165/C2405-P165.minimised.mol

>  <scratch_subdir>  (124) 
/opt/xchem-fragalysis-2/maxwin/BulkDock/SCRATCH/505736/C2405-P165

>  <fragmenstein_runtime>  (124) 
0.4233877658843994

>  <fragmenstein_outcome>  (124) 
crashed

>  <fragmenstein_mode>  (124) 
expansion

>  <fragmenstein_error>  (124) 
PoisonError: None has poison atoms [18, 11, 18, 11, 11, 18, 11, 18]

$$$$
C2406-P165
     RDKit          3D

 48 52  0  0  0  0  0  0  0  0999 V2000
    3.3595    2.6261   36.4362 C   0  0  0  0  0  0  0  0  0  0  0  0
    2.1505    1.9327   36.3733 C   0  0  0  0  0  0  0  0  0  0  0  0
    1.9904    0.8964   35.4585 C   0  0  0  0  0  0  0  0  0  0  0  0
    3.0455    0.5349   34.6127 C   0  0  0  0  0  0  0  0  0  0  0  0
    2.9054   -0.5782   33.7016 C   0  0  0  0  0  0  0  0  0  0  0  0
    3.7726   -1.5453   33.5015 N   0  0  0  0  0  0  0  0  0  0  0  0
    3.2264   -2.4294   32.6100 N   0  0  0  0  0  0  0  0  0  0  0  0
    2.0487   -1.9680   32.2503 C   0  0  0  0  0  0  0  0  0  0  0  0
    1.0840   -2.5589   31.3023 C   0  0  0  0  0  0  0  0  0  0  0  0
    1.3355   -3.9425   30.9491 N   0  0  0  0  0  0  0  0  0  0  0  0
    0.6857   -5.0150   31.4976 C   0  0  0  0  0  0  0  0  0  0  0  0
    0.4294   -5.0220   32.9361 C   0  0  0  0  0  0  0  0  0  0  0  0
   -0.2256   -6.0418   33.5212 C   0  0  0  0  0  0  0  0  0  0  0  0
   -0.5107   -6.1737   35.2328 S   0  0  0  0  0  0  0  0  0  0  0  0
    0.6225   -4.9988   36.0317 C   0  0  0  0  0  0  0  0  0  0  0  0
    2.0887   -5.2412   35.7736 C   0  0  0  0  0  0  0  0  0  0  0  0
    2.9029   -4.2007   35.3169 C   0  0  0  0  0  0  0  0  0  0  0  0
    4.2366   -4.4542   35.0339 C   0  0  0  0  0  0  0  0  0  0  0  0
    4.8218   -5.6547   35.2213 N   0  0  0  0  0  0  0  0  0  0  0  0
    4.0374   -6.6330   35.7152 C   0  0  0  0  0  0  0  0  0  0  0  0
    2.6882   -6.4813   36.0015 C   0  0  0  0  0  0  0  0  0  0  0  0
   -0.7144   -7.0408   32.6674 N   0  0  0  0  0  0  0  0  0  0  0  0
   -1.5300   -8.1103   32.8826 C   0  0  0  0  0  0  0  0  0  0  0  0
   -1.7596   -8.7477   31.7564 N   0  0  0  0  0  0  0  0  0  0  0  0
   -1.0879   -8.1059   30.7583 N   0  0  0  0  0  0  0  0  0  0  0  0
   -0.4683   -7.0873   31.3046 C   0  0  0  0  0  0  0  0  0  0  0  0
    0.3039   -6.0571   30.7420 C   0  0  0  0  0  0  0  0  0  0  0  0
    1.8149   -0.7946   32.9057 N   0  0  0  0  0  0  0  0  0  0  0  0
    4.2604    1.2235   34.6872 C   0  0  0  0  0  0  0  0  0  0  0  0
    4.4139    2.2730   35.5942 C   0  0  0  0  0  0  0  0  0  0  0  0
    3.4846    3.4371   37.1498 H   0  0  0  0  0  0  0  0  0  0  0  0
    1.3369    2.2036   37.0417 H   0  0  0  0  0  0  0  0  0  0  0  0
    1.0480    0.3553   35.4445 H   0  0  0  0  0  0  0  0  0  0  0  0
    0.0610   -2.4441   31.6841 H   0  0  0  0  0  0  0  0  0  0  0  0
    1.1201   -1.9669   30.3787 H   0  0  0  0  0  0  0  0  0  0  0  0
    1.5491   -4.0470   29.9598 H   0  0  0  0  0  0  0  0  0  0  0  0
    0.8251   -4.1900   33.4975 H   0  0  0  0  0  0  0  0  0  0  0  0
    0.3322   -3.9829   35.7410 H   0  0  0  0  0  0  0  0  0  0  0  0
    0.4553   -5.0625   37.1133 H   0  0  0  0  0  0  0  0  0  0  0  0
    2.5116   -3.2038   35.1534 H   0  0  0  0  0  0  0  0  0  0  0  0
    4.8823   -3.6740   34.6395 H   0  0  0  0  0  0  0  0  0  0  0  0
    4.5394   -7.5810   35.8836 H   0  0  0  0  0  0  0  0  0  0  0  0
    2.1210   -7.3190   36.3951 H   0  0  0  0  0  0  0  0  0  0  0  0
   -1.9380   -8.3631   33.8490 H   0  0  0  0  0  0  0  0  0  0  0  0
    0.5121   -6.0811   29.6857 H   0  0  0  0  0  0  0  0  0  0  0  0
    1.0050   -0.1975   32.8270 H   0  0  0  0  0  0  0  0  0  0  0  0
    5.0947    0.9376   34.0491 H   0  0  0  0  0  0  0  0  0  0  0  0
    5.3599    2.8056   35.6524 H   0  0  0  0  0  0  0  0  0  0  0  0
  1  2  2  0
  2  3  1  0
  3  4  2  0
  4  5  1  0
  5  6  2  0
  6  7  1  0
  7  8  2  0
  8  9  1  0
  9 10  1  0
 10 11  1  0
 11 12  1  0
 12 13  2  0
 13 14  1  0
 14 15  1  0
 15 16  1  0
 16 17  2  0
 17 18  1  0
 18 19  2  0
 19 20  1  0
 20 21  2  0
 13 22  1  0
 22 23  1  0
 23 24  2  0
 24 25  1  0
 25 26  2  0
 26 27  1  0
  8 28  1  0
  4 29  1  0
 29 30  2  0
 30  1  1  0
 28  5  1  0
 27 11  2  0
 21 16  1  0
 26 22  1  0
  1 31  1  0
  2 32  1  0
  3 33  1  0
  9 34  1  0
  9 35  1  0
 10 36  1  0
 12 37  1  0
 15 38  1  0
 15 39  1  0
 17 40  1  0
 18 41  1  0
 20 42  1  0
 21 43  1  0
 23 44  1  0
 27 45  1  0
 28 46  1  0
 29 47  1  0
 30 48  1  0
M  END
>  <Energy>  (125) 
68.005481599310343

>  <compound_id>  (125) 
2406

>  <target_id>  (125) 
1

>  <reference_id>  (125) 
165

>  <inspiration_ids>  (125) 
[165, 136]

>  <energy_score>  (125) 
-43.6879107802589

>  <distance_score>  (125) 
0.9477878113284773

>  <path>  (125) 
/opt/xchem-fragalysis-2/maxwin/BulkDock/SCRATCH/505736/C2406-P165/C2406-P165.minimised.mol

>  <scratch_subdir>  (125) 
/opt/xchem-fragalysis-2/maxwin/BulkDock/SCRATCH/505736/C2406-P165

>  <fragmenstein_runtime>  (125) 
2.4183175563812256

>  <fragmenstein_outcome>  (125) 
acceptable

>  <fragmenstein_mode>  (125) 
expansion

>  <fragmenstein_error>  (125) 


$$$$
C2406-P136
     RDKit          3D

 48 52  0  0  0  0  0  0  0  0999 V2000
    2.3748    2.6330   36.0722 C   0  0  0  0  0  0  0  0  0  0  0  0
    1.3524    1.6927   35.9440 C   0  0  0  0  0  0  0  0  0  0  0  0
    1.5190    0.5888   35.1108 C   0  0  0  0  0  0  0  0  0  0  0  0
    2.7185    0.4073   34.4173 C   0  0  0  0  0  0  0  0  0  0  0  0
    2.9413   -0.7738   33.6132 C   0  0  0  0  0  0  0  0  0  0  0  0
    4.0177   -1.5296   33.6485 N   0  0  0  0  0  0  0  0  0  0  0  0
    3.8635   -2.5378   32.7418 N   0  0  0  0  0  0  0  0  0  0  0  0
    2.7045   -2.3751   32.1491 C   0  0  0  0  0  0  0  0  0  0  0  0
    2.1801   -3.1782   31.0334 C   0  0  0  0  0  0  0  0  0  0  0  0
    0.7438   -3.4517   31.0621 N   0  0  0  0  0  0  0  0  0  0  0  0
    0.3143   -4.6720   31.5386 C   0  0  0  0  0  0  0  0  0  0  0  0
    0.2098   -4.8115   32.9876 C   0  0  0  0  0  0  0  0  0  0  0  0
   -0.3142   -5.9243   33.5354 C   0  0  0  0  0  0  0  0  0  0  0  0
   -0.5329   -6.1624   35.2443 S   0  0  0  0  0  0  0  0  0  0  0  0
    0.6192   -5.0188   36.0582 C   0  0  0  0  0  0  0  0  0  0  0  0
    2.0763   -5.2796   35.7714 C   0  0  0  0  0  0  0  0  0  0  0  0
    2.9163   -4.2376   35.3719 C   0  0  0  0  0  0  0  0  0  0  0  0
    4.2532   -4.5077   35.1154 C   0  0  0  0  0  0  0  0  0  0  0  0
    4.8079   -5.7303   35.2449 N   0  0  0  0  0  0  0  0  0  0  0  0
    3.9960   -6.7130   35.6777 C   0  0  0  0  0  0  0  0  0  0  0  0
    2.6474   -6.5424   35.9511 C   0  0  0  0  0  0  0  0  0  0  0  0
   -0.7529   -6.9169   32.6462 N   0  0  0  0  0  0  0  0  0  0  0  0
   -1.4379   -8.0788   32.8395 C   0  0  0  0  0  0  0  0  0  0  0  0
   -1.6292   -8.7004   31.6975 N   0  0  0  0  0  0  0  0  0  0  0  0
   -1.0994   -7.9289   30.7034 N   0  0  0  0  0  0  0  0  0  0  0  0
   -0.6031   -6.8538   31.2703 C   0  0  0  0  0  0  0  0  0  0  0  0
   -0.0519   -5.6788   30.7249 C   0  0  0  0  0  0  0  0  0  0  0  0
    2.0731   -1.2891   32.6871 N   0  0  0  0  0  0  0  0  0  0  0  0
    3.7482    1.3456   34.5597 C   0  0  0  0  0  0  0  0  0  0  0  0
    3.5724    2.4610   35.3798 C   0  0  0  0  0  0  0  0  0  0  0  0
    2.2418    3.4962   36.7199 H   0  0  0  0  0  0  0  0  0  0  0  0
    0.4244    1.8251   36.4951 H   0  0  0  0  0  0  0  0  0  0  0  0
    0.7161   -0.1408   35.0417 H   0  0  0  0  0  0  0  0  0  0  0  0
    2.3970   -2.6311   30.1064 H   0  0  0  0  0  0  0  0  0  0  0  0
    2.7450   -4.1169   30.9567 H   0  0  0  0  0  0  0  0  0  0  0  0
    0.3991   -3.3277   30.1053 H   0  0  0  0  0  0  0  0  0  0  0  0
    0.5269   -3.9608   33.5754 H   0  0  0  0  0  0  0  0  0  0  0  0
    0.3404   -3.9897   35.8070 H   0  0  0  0  0  0  0  0  0  0  0  0
    0.4679   -5.1143   37.1399 H   0  0  0  0  0  0  0  0  0  0  0  0
    2.5523   -3.2231   35.2590 H   0  0  0  0  0  0  0  0  0  0  0  0
    4.9337   -3.7220   34.7980 H   0  0  0  0  0  0  0  0  0  0  0  0
    4.4751   -7.6782   35.8121 H   0  0  0  0  0  0  0  0  0  0  0  0
    2.0591   -7.3822   36.3085 H   0  0  0  0  0  0  0  0  0  0  0  0
   -1.7841   -8.4025   33.8075 H   0  0  0  0  0  0  0  0  0  0  0  0
    0.0057   -5.5893   29.6488 H   0  0  0  0  0  0  0  0  0  0  0  0
    1.1694   -0.9252   32.4209 H   0  0  0  0  0  0  0  0  0  0  0  0
    4.6961    1.2033   34.0436 H   0  0  0  0  0  0  0  0  0  0  0  0
    4.3747    3.1864   35.4887 H   0  0  0  0  0  0  0  0  0  0  0  0
  1  2  2  0
  2  3  1  0
  3  4  2  0
  4  5  1  0
  5  6  2  0
  6  7  1  0
  7  8  2  0
  8  9  1  0
  9 10  1  0
 10 11  1  0
 11 12  1  0
 12 13  2  0
 13 14  1  0
 14 15  1  0
 15 16  1  0
 16 17  2  0
 17 18  1  0
 18 19  2  0
 19 20  1  0
 20 21  2  0
 13 22  1  0
 22 23  1  0
 23 24  2  0
 24 25  1  0
 25 26  2  0
 26 27  1  0
  8 28  1  0
  4 29  1  0
 29 30  2  0
 30  1  1  0
 28  5  1  0
 27 11  2  0
 21 16  1  0
 26 22  1  0
  1 31  1  0
  2 32  1  0
  3 33  1  0
  9 34  1  0
  9 35  1  0
 10 36  1  0
 12 37  1  0
 15 38  1  0
 15 39  1  0
 17 40  1  0
 18 41  1  0
 20 42  1  0
 21 43  1  0
 23 44  1  0
 27 45  1  0
 28 46  1  0
 29 47  1  0
 30 48  1  0
M  END
>  <Energy>  (126) 
62.724667339729464

>  <compound_id>  (126) 
2406

>  <target_id>  (126) 
1

>  <reference_id>  (126) 
136

>  <inspiration_ids>  (126) 
[165, 136]

>  <energy_score>  (126) 
-48.968725039840024

>  <distance_score>  (126) 
1.036281105941454

>  <path>  (126) 
/opt/xchem-fragalysis-2/maxwin/BulkDock/SCRATCH/505736/C2406-P136/C2406-P136.minimised.mol

>  <scratch_subdir>  (126) 
/opt/xchem-fragalysis-2/maxwin/BulkDock/SCRATCH/505736/C2406-P136

>  <fragmenstein_runtime>  (126) 
2.4097790718078613

>  <fragmenstein_outcome>  (126) 
too moved

>  <fragmenstein_mode>  (126) 
expansion

>  <fragmenstein_error>  (126) 


$$$$
C2407-P165
     RDKit          3D

 42 46  0  0  0  0  0  0  0  0999 V2000
    2.4547   -8.1558   41.5323 C   0  0  0  0  0  0  0  0  0  0  0  0
    3.7252   -8.3505   41.0384 C   0  0  0  0  0  0  0  0  0  0  0  0
    3.6490   -8.3398   39.6750 N   0  0  0  0  0  0  0  0  0  0  0  0
    2.3574   -8.0789   39.2885 C   0  0  0  0  0  0  0  0  0  0  0  0
    2.0345   -7.8972   37.9199 C   0  0  0  0  0  0  0  0  0  0  0  0
    2.9128   -8.0626   36.9470 N   0  0  0  0  0  0  0  0  0  0  0  0
    2.3148   -7.6130   35.7895 N   0  0  0  0  0  0  0  0  0  0  0  0
    1.1221   -7.1730   36.1399 C   0  0  0  0  0  0  0  0  0  0  0  0
    0.1204   -6.1463   35.1808 S   0  0  0  0  0  4  0  0  0  0  0  0
    0.4358   -4.4942   35.7434 C   0  0  0  0  0  0  0  0  0  0  0  0
    1.8815   -4.0836   35.6066 C   0  0  0  0  0  0  0  0  0  0  0  0
    2.2671   -3.1385   34.6488 C   0  0  0  0  0  0  0  0  0  0  0  0
    3.6215   -2.9322   34.4135 C   0  0  0  0  0  0  0  0  0  0  0  0
    4.6064   -3.5812   35.0672 N   0  0  0  0  0  0  0  0  0  0  0  0
    4.2213   -4.4050   36.0600 C   0  0  0  0  0  0  0  0  0  0  0  0
    2.8955   -4.6454   36.3863 C   0  0  0  0  0  0  0  0  0  0  0  0
    0.4077   -6.3226   33.5021 C   0  0  0  0  0  0  0  0  0  0  0  0
    1.4808   -5.7510   32.9295 C   0  0  0  0  0  0  0  0  0  0  0  0
    1.5663   -5.6519   31.4862 C   0  0  0  0  0  0  0  0  0  0  0  0
    0.6534   -6.2367   30.6960 C   0  0  0  0  0  0  0  0  0  0  0  0
   -0.3771   -7.0124   31.2792 C   0  0  0  0  0  0  0  0  0  0  0  0
   -1.3175   -7.7701   30.7626 N   0  0  0  0  0  0  0  0  0  0  0  0
   -2.0339   -8.3002   31.8026 N   0  0  0  0  0  0  0  0  0  0  0  0
   -1.5206   -7.8477   32.9262 C   0  0  0  0  0  0  0  0  0  0  0  0
   -0.4760   -7.0111   32.6653 N   0  0  0  0  0  0  0  0  0  0  0  0
    0.8590   -7.3717   37.4679 O   0  0  0  0  0  0  0  0  0  0  0  0
    1.5857   -7.9899   40.4260 C   0  0  0  0  0  0  0  0  0  0  0  0
    2.1821   -8.1261   42.5799 H   0  0  0  0  0  0  0  0  0  0  0  0
    4.6693   -8.5086   41.5430 H   0  0  0  0  0  0  0  0  0  0  0  0
    4.4262   -8.4535   39.0356 H   0  0  0  0  0  0  0  0  0  0  0  0
   -1.1723   -6.4350   35.4547 H   0  0  0  0  0  0  0  0  0  0  0  0
   -0.2234   -3.8326   35.1715 H   0  0  0  0  0  0  0  0  0  0  0  0
    0.1267   -4.4376   36.7925 H   0  0  0  0  0  0  0  0  0  0  0  0
    1.5330   -2.6150   34.0434 H   0  0  0  0  0  0  0  0  0  0  0  0
    3.9543   -2.2316   33.6525 H   0  0  0  0  0  0  0  0  0  0  0  0
    5.0273   -4.8728   36.6176 H   0  0  0  0  0  0  0  0  0  0  0  0
    2.6783   -5.2855   37.2305 H   0  0  0  0  0  0  0  0  0  0  0  0
    2.3033   -5.3212   33.4756 H   0  0  0  0  0  0  0  0  0  0  0  0
    2.3733   -5.0605   31.0629 H   0  0  0  0  0  0  0  0  0  0  0  0
    0.7075   -6.1289   29.6256 H   0  0  0  0  0  0  0  0  0  0  0  0
   -1.8444   -8.1117   33.9220 H   0  0  0  0  0  0  0  0  0  0  0  0
    0.5197   -7.8017   40.4577 H   0  0  0  0  0  0  0  0  0  0  0  0
  1  2  2  0
  2  3  1  0
  3  4  1  0
  4  5  1  0
  5  6  2  0
  6  7  1  0
  7  8  2  0
  8  9  1  0
  9 10  1  0
 10 11  1  0
 11 12  2  0
 12 13  1  0
 13 14  2  0
 14 15  1  0
 15 16  2  0
  9 17  1  0
 17 18  2  0
 18 19  1  0
 19 20  2  0
 20 21  1  0
 21 22  2  0
 22 23  1  0
 23 24  2  0
 24 25  1  0
  8 26  1  0
  4 27  2  0
 27  1  1  0
 26  5  1  0
 16 11  1  0
 25 17  1  0
 25 21  1  0
  1 28  1  0
  2 29  1  0
  3 30  1  0
  9 31  1  0
 10 32  1  0
 10 33  1  0
 12 34  1  0
 13 35  1  0
 15 36  1  0
 16 37  1  0
 18 38  1  0
 19 39  1  0
 20 40  1  0
 24 41  1  0
 27 42  1  0
M  END
>  <Energy>  (127) 
66.325654917809771

>  <compound_id>  (127) 
2407

>  <target_id>  (127) 
1

>  <reference_id>  (127) 
165

>  <inspiration_ids>  (127) 
[165, 140]

>  <energy_score>  (127) 
-286.13322567914565

>  <distance_score>  (127) 
1.1689323094695416

>  <path>  (127) 
/opt/xchem-fragalysis-2/maxwin/BulkDock/SCRATCH/505736/C2407-P165/C2407-P165.minimised.mol

>  <scratch_subdir>  (127) 
/opt/xchem-fragalysis-2/maxwin/BulkDock/SCRATCH/505736/C2407-P165

>  <fragmenstein_runtime>  (127) 
4.88915491104126

>  <fragmenstein_outcome>  (127) 
too moved

>  <fragmenstein_mode>  (127) 
expansion

>  <fragmenstein_error>  (127) 


$$$$
C2407-P140
     RDKit          3D

 42 46  0  0  0  0  0  0  0  0999 V2000
    2.5132   -8.0740   41.4944 C   0  0  0  0  0  0  0  0  0  0  0  0
    3.8087   -8.1115   41.0299 C   0  0  0  0  0  0  0  0  0  0  0  0
    3.7681   -7.9775   39.6720 N   0  0  0  0  0  0  0  0  0  0  0  0
    2.4688   -7.7985   39.2642 C   0  0  0  0  0  0  0  0  0  0  0  0
    2.1652   -7.5624   37.9002 C   0  0  0  0  0  0  0  0  0  0  0  0
    3.0670   -7.6399   36.9380 N   0  0  0  0  0  0  0  0  0  0  0  0
    2.4485   -7.2391   35.7740 N   0  0  0  0  0  0  0  0  0  0  0  0
    1.2246   -6.8901   36.1128 C   0  0  0  0  0  0  0  0  0  0  0  0
    0.1442   -5.9740   35.1289 S   0  0  0  0  0  4  0  0  0  0  0  0
    0.3929   -4.2792   35.5975 C   0  0  0  0  0  0  0  0  0  0  0  0
    1.8466   -3.8821   35.5603 C   0  0  0  0  0  0  0  0  0  0  0  0
    2.7401   -4.2259   36.5709 C   0  0  0  0  0  0  0  0  0  0  0  0
    4.1037   -4.0487   36.3689 C   0  0  0  0  0  0  0  0  0  0  0  0
    4.6367   -3.5066   35.2613 N   0  0  0  0  0  0  0  0  0  0  0  0
    3.7558   -3.0556   34.3551 C   0  0  0  0  0  0  0  0  0  0  0  0
    2.3767   -3.1908   34.4732 C   0  0  0  0  0  0  0  0  0  0  0  0
    0.4144   -6.1836   33.4496 C   0  0  0  0  0  0  0  0  0  0  0  0
    1.5146   -5.6765   32.8709 C   0  0  0  0  0  0  0  0  0  0  0  0
    1.5808   -5.5537   31.4270 C   0  0  0  0  0  0  0  0  0  0  0  0
    0.6471   -6.1087   30.6387 C   0  0  0  0  0  0  0  0  0  0  0  0
   -0.3988   -6.8542   31.2301 C   0  0  0  0  0  0  0  0  0  0  0  0
   -1.3491   -7.6050   30.7240 N   0  0  0  0  0  0  0  0  0  0  0  0
   -2.0777   -8.0994   31.7712 N   0  0  0  0  0  0  0  0  0  0  0  0
   -1.5689   -7.6244   32.8860 C   0  0  0  0  0  0  0  0  0  0  0  0
   -0.4985   -6.8306   32.6155 N   0  0  0  0  0  0  0  0  0  0  0  0
    0.9578   -7.1224   37.4345 O   0  0  0  0  0  0  0  0  0  0  0  0
    1.6630   -7.8791   40.3783 C   0  0  0  0  0  0  0  0  0  0  0  0
    2.2088   -8.1828   42.5278 H   0  0  0  0  0  0  0  0  0  0  0  0
    4.7477   -8.2469   41.5501 H   0  0  0  0  0  0  0  0  0  0  0  0
    4.5683   -7.9850   39.0515 H   0  0  0  0  0  0  0  0  0  0  0  0
   -1.1266   -6.3116   35.4447 H   0  0  0  0  0  0  0  0  0  0  0  0
   -0.2085   -3.6598   34.9240 H   0  0  0  0  0  0  0  0  0  0  0  0
   -0.0121   -4.1553   36.6073 H   0  0  0  0  0  0  0  0  0  0  0  0
    2.4023   -4.6794   37.4965 H   0  0  0  0  0  0  0  0  0  0  0  0
    4.8199   -4.3612   37.1239 H   0  0  0  0  0  0  0  0  0  0  0  0
    4.1928   -2.5621   33.4911 H   0  0  0  0  0  0  0  0  0  0  0  0
    1.7381   -2.8157   33.6780 H   0  0  0  0  0  0  0  0  0  0  0  0
    2.3697   -5.3217   33.4223 H   0  0  0  0  0  0  0  0  0  0  0  0
    2.4009   -4.9831   31.0001 H   0  0  0  0  0  0  0  0  0  0  0  0
    0.6931   -6.0046   29.5662 H   0  0  0  0  0  0  0  0  0  0  0  0
   -1.9120   -7.8453   33.8841 H   0  0  0  0  0  0  0  0  0  0  0  0
    0.5825   -7.8122   40.3901 H   0  0  0  0  0  0  0  0  0  0  0  0
  1  2  2  0
  2  3  1  0
  3  4  1  0
  4  5  1  0
  5  6  2  0
  6  7  1  0
  7  8  2  0
  8  9  1  0
  9 10  1  0
 10 11  1  0
 11 12  2  0
 12 13  1  0
 13 14  2  0
 14 15  1  0
 15 16  2  0
  9 17  1  0
 17 18  2  0
 18 19  1  0
 19 20  2  0
 20 21  1  0
 21 22  2  0
 22 23  1  0
 23 24  2  0
 24 25  1  0
  8 26  1  0
  4 27  2  0
 27  1  1  0
 26  5  1  0
 16 11  1  0
 25 17  1  0
 25 21  1  0
  1 28  1  0
  2 29  1  0
  3 30  1  0
  9 31  1  0
 10 32  1  0
 10 33  1  0
 12 34  1  0
 13 35  1  0
 15 36  1  0
 16 37  1  0
 18 38  1  0
 19 39  1  0
 20 40  1  0
 24 41  1  0
 27 42  1  0
M  END
>  <Energy>  (128) 
67.133000124706271

>  <compound_id>  (128) 
2407

>  <target_id>  (128) 
1

>  <reference_id>  (128) 
140

>  <inspiration_ids>  (128) 
[165, 140]

>  <energy_score>  (128) 
-285.32588047225124

>  <distance_score>  (128) 
1.611275484881336

>  <path>  (128) 
/opt/xchem-fragalysis-2/maxwin/BulkDock/SCRATCH/505736/C2407-P140/C2407-P140.minimised.mol

>  <scratch_subdir>  (128) 
/opt/xchem-fragalysis-2/maxwin/BulkDock/SCRATCH/505736/C2407-P140

>  <fragmenstein_runtime>  (128) 
4.969271421432495

>  <fragmenstein_outcome>  (128) 
too moved

>  <fragmenstein_mode>  (128) 
expansion

>  <fragmenstein_error>  (128) 


$$$$
C2407-P165
     RDKit          3D

 42 46  0  0  0  0  0  0  0  0999 V2000
    2.4882   -1.5618   29.8530 C   0  0  0  0  0  0  0  0  0  0  0  0
    1.2671   -1.4838   29.2229 C   0  0  0  0  0  0  0  0  0  0  0  0
    0.2932   -1.7201   30.1508 N   0  0  0  0  0  0  0  0  0  0  0  0
    0.8722   -1.9398   31.3736 C   0  0  0  0  0  0  0  0  0  0  0  0
    0.0620   -2.2949   32.4833 C   0  0  0  0  0  0  0  0  0  0  0  0
   -1.2450   -2.4260   32.3943 N   0  0  0  0  0  0  0  0  0  0  0  0
   -1.6187   -3.2364   33.4311 N   0  0  0  0  0  0  0  0  0  0  0  0
   -0.5202   -3.5621   34.0773 C   0  0  0  0  0  0  0  0  0  0  0  0
   -0.3029   -5.1764   34.7556 S   0  0  0  0  0  4  0  0  0  0  0  0
    0.7561   -5.0386   36.1289 C   0  0  0  0  0  0  0  0  0  0  0  0
    2.2083   -4.9996   35.7703 C   0  0  0  0  0  0  0  0  0  0  0  0
    2.8587   -3.7878   35.5110 C   0  0  0  0  0  0  0  0  0  0  0  0
    4.1877   -3.8137   35.1183 C   0  0  0  0  0  0  0  0  0  0  0  0
    4.9078   -4.9476   34.9906 N   0  0  0  0  0  0  0  0  0  0  0  0
    4.2802   -6.1016   35.2979 C   0  0  0  0  0  0  0  0  0  0  0  0
    2.9510   -6.1804   35.6820 C   0  0  0  0  0  0  0  0  0  0  0  0
    0.3167   -6.0085   33.3733 C   0  0  0  0  0  0  0  0  0  0  0  0
    1.3703   -5.4631   32.7308 C   0  0  0  0  0  0  0  0  0  0  0  0
    1.5950   -5.7510   31.3344 C   0  0  0  0  0  0  0  0  0  0  0  0
    0.7691   -6.5591   30.6562 C   0  0  0  0  0  0  0  0  0  0  0  0
   -0.2906   -7.2118   31.3249 C   0  0  0  0  0  0  0  0  0  0  0  0
   -1.2105   -8.0549   30.9159 N   0  0  0  0  0  0  0  0  0  0  0  0
   -1.9681   -8.3884   32.0067 N   0  0  0  0  0  0  0  0  0  0  0  0
   -1.4995   -7.7354   33.0487 C   0  0  0  0  0  0  0  0  0  0  0  0
   -0.4634   -6.9341   32.6740 N   0  0  0  0  0  0  0  0  0  0  0  0
    0.5549   -2.8229   33.6460 O   0  0  0  0  0  0  0  0  0  0  0  0
    2.2405   -1.8617   31.2154 C   0  0  0  0  0  0  0  0  0  0  0  0
    3.4517   -1.4227   29.3798 H   0  0  0  0  0  0  0  0  0  0  0  0
    1.0033   -1.2833   28.1912 H   0  0  0  0  0  0  0  0  0  0  0  0
   -0.7048   -1.7443   29.9659 H   0  0  0  0  0  0  0  0  0  0  0  0
   -1.5165   -5.6527   35.1151 H   0  0  0  0  0  0  0  0  0  0  0  0
    0.4710   -4.1417   36.6894 H   0  0  0  0  0  0  0  0  0  0  0  0
    0.5447   -5.8932   36.7811 H   0  0  0  0  0  0  0  0  0  0  0  0
    2.3419   -2.8368   35.5958 H   0  0  0  0  0  0  0  0  0  0  0  0
    4.7229   -2.8952   34.8939 H   0  0  0  0  0  0  0  0  0  0  0  0
    4.8950   -6.9936   35.2213 H   0  0  0  0  0  0  0  0  0  0  0  0
    2.5045   -7.1444   35.9032 H   0  0  0  0  0  0  0  0  0  0  0  0
    1.9930   -4.6737   33.1275 H   0  0  0  0  0  0  0  0  0  0  0  0
    2.4199   -5.2505   30.8346 H   0  0  0  0  0  0  0  0  0  0  0  0
    0.9536   -6.7623   29.6188 H   0  0  0  0  0  0  0  0  0  0  0  0
   -1.8542   -7.8221   34.0648 H   0  0  0  0  0  0  0  0  0  0  0  0
    2.9802   -2.0097   31.9912 H   0  0  0  0  0  0  0  0  0  0  0  0
  1  2  2  0
  2  3  1  0
  3  4  1  0
  4  5  1  0
  5  6  2  0
  6  7  1  0
  7  8  2  0
  8  9  1  0
  9 10  1  0
 10 11  1  0
 11 12  2  0
 12 13  1  0
 13 14  2  0
 14 15  1  0
 15 16  2  0
  9 17  1  0
 17 18  2  0
 18 19  1  0
 19 20  2  0
 20 21  1  0
 21 22  2  0
 22 23  1  0
 23 24  2  0
 24 25  1  0
  8 26  1  0
  4 27  2  0
 27  1  1  0
 26  5  1  0
 16 11  1  0
 25 17  1  0
 25 21  1  0
  1 28  1  0
  2 29  1  0
  3 30  1  0
  9 31  1  0
 10 32  1  0
 10 33  1  0
 12 34  1  0
 13 35  1  0
 15 36  1  0
 16 37  1  0
 18 38  1  0
 19 39  1  0
 20 40  1  0
 24 41  1  0
 27 42  1  0
M  END
>  <Energy>  (129) 
76.581784183816097

>  <compound_id>  (129) 
2407

>  <target_id>  (129) 
1

>  <reference_id>  (129) 
165

>  <inspiration_ids>  (129) 
[165, 141]

>  <energy_score>  (129) 
-19.9526379949112

>  <distance_score>  (129) 
1.3356486042587943

>  <path>  (129) 
/opt/xchem-fragalysis-2/maxwin/BulkDock/SCRATCH/505736/C2407-P165/C2407-P165.minimised.mol

>  <scratch_subdir>  (129) 
/opt/xchem-fragalysis-2/maxwin/BulkDock/SCRATCH/505736/C2407-P165

>  <fragmenstein_runtime>  (129) 
2.0347039699554443

>  <fragmenstein_outcome>  (129) 
too moved

>  <fragmenstein_mode>  (129) 
expansion

>  <fragmenstein_error>  (129) 


$$$$
C2407-P141
     RDKit          3D

 42 46  0  0  0  0  0  0  0  0999 V2000
    2.3126   -1.6055   29.7960 C   0  0  0  0  0  0  0  0  0  0  0  0
    1.0393   -1.4661   29.2917 C   0  0  0  0  0  0  0  0  0  0  0  0
    0.1545   -1.6044   30.3237 N   0  0  0  0  0  0  0  0  0  0  0  0
    0.8417   -1.8408   31.4855 C   0  0  0  0  0  0  0  0  0  0  0  0
    0.1359   -2.1321   32.6833 C   0  0  0  0  0  0  0  0  0  0  0  0
   -1.1781   -2.1239   32.7733 N   0  0  0  0  0  0  0  0  0  0  0  0
   -1.4958   -2.9245   33.8454 N   0  0  0  0  0  0  0  0  0  0  0  0
   -0.3607   -3.4187   34.2875 C   0  0  0  0  0  0  0  0  0  0  0  0
   -0.2098   -5.0859   34.8382 S   0  0  0  0  0  4  0  0  0  0  0  0
    0.8873   -5.0950   36.1859 C   0  0  0  0  0  0  0  0  0  0  0  0
    2.3258   -5.0293   35.7819 C   0  0  0  0  0  0  0  0  0  0  0  0
    2.9590   -3.8049   35.5419 C   0  0  0  0  0  0  0  0  0  0  0  0
    4.2768   -3.8056   35.1141 C   0  0  0  0  0  0  0  0  0  0  0  0
    5.0046   -4.9278   34.9414 N   0  0  0  0  0  0  0  0  0  0  0  0
    4.3986   -6.0947   35.2404 C   0  0  0  0  0  0  0  0  0  0  0  0
    3.0780   -6.1986   35.6468 C   0  0  0  0  0  0  0  0  0  0  0  0
    0.3253   -5.8894   33.4031 C   0  0  0  0  0  0  0  0  0  0  0  0
    1.3528   -5.3556   32.7113 C   0  0  0  0  0  0  0  0  0  0  0  0
    1.4991   -5.6398   31.2999 C   0  0  0  0  0  0  0  0  0  0  0  0
    0.6525   -6.4643   30.6667 C   0  0  0  0  0  0  0  0  0  0  0  0
   -0.3502   -7.1364   31.3997 C   0  0  0  0  0  0  0  0  0  0  0  0
   -1.2497   -8.0282   31.0541 N   0  0  0  0  0  0  0  0  0  0  0  0
   -1.9443   -8.3572   32.1867 N   0  0  0  0  0  0  0  0  0  0  0  0
   -1.4720   -7.6449   33.1862 C   0  0  0  0  0  0  0  0  0  0  0  0
   -0.4733   -6.8299   32.7490 N   0  0  0  0  0  0  0  0  0  0  0  0
    0.7152   -2.7548   33.7532 O   0  0  0  0  0  0  0  0  0  0  0  0
    2.1893   -1.8536   31.1854 C   0  0  0  0  0  0  0  0  0  0  0  0
    3.2283   -1.5425   29.2222 H   0  0  0  0  0  0  0  0  0  0  0  0
    0.6835   -1.2771   28.2857 H   0  0  0  0  0  0  0  0  0  0  0  0
   -0.8560   -1.5572   30.2445 H   0  0  0  0  0  0  0  0  0  0  0  0
   -1.4383   -5.5151   35.2073 H   0  0  0  0  0  0  0  0  0  0  0  0
    0.6312   -4.2551   36.8406 H   0  0  0  0  0  0  0  0  0  0  0  0
    0.6849   -6.0086   36.7556 H   0  0  0  0  0  0  0  0  0  0  0  0
    2.4405   -2.8606   35.6753 H   0  0  0  0  0  0  0  0  0  0  0  0
    4.7975   -2.8759   34.9024 H   0  0  0  0  0  0  0  0  0  0  0  0
    5.0250   -6.9762   35.1387 H   0  0  0  0  0  0  0  0  0  0  0  0
    2.6519   -7.1725   35.8622 H   0  0  0  0  0  0  0  0  0  0  0  0
    2.0144   -4.5864   33.0862 H   0  0  0  0  0  0  0  0  0  0  0  0
    2.2789   -5.1168   30.7524 H   0  0  0  0  0  0  0  0  0  0  0  0
    0.7588   -6.6536   29.6137 H   0  0  0  0  0  0  0  0  0  0  0  0
   -1.7987   -7.6964   34.2133 H   0  0  0  0  0  0  0  0  0  0  0  0
    2.9952   -2.0321   31.8854 H   0  0  0  0  0  0  0  0  0  0  0  0
  1  2  2  0
  2  3  1  0
  3  4  1  0
  4  5  1  0
  5  6  2  0
  6  7  1  0
  7  8  2  0
  8  9  1  0
  9 10  1  0
 10 11  1  0
 11 12  2  0
 12 13  1  0
 13 14  2  0
 14 15  1  0
 15 16  2  0
  9 17  1  0
 17 18  2  0
 18 19  1  0
 19 20  2  0
 20 21  1  0
 21 22  2  0
 22 23  1  0
 23 24  2  0
 24 25  1  0
  8 26  1  0
  4 27  2  0
 27  1  1  0
 26  5  1  0
 16 11  1  0
 25 17  1  0
 25 21  1  0
  1 28  1  0
  2 29  1  0
  3 30  1  0
  9 31  1  0
 10 32  1  0
 10 33  1  0
 12 34  1  0
 13 35  1  0
 15 36  1  0
 16 37  1  0
 18 38  1  0
 19 39  1  0
 20 40  1  0
 24 41  1  0
 27 42  1  0
M  END
>  <Energy>  (130) 
76.058545498868156

>  <compound_id>  (130) 
2407

>  <target_id>  (130) 
1

>  <reference_id>  (130) 
141

>  <inspiration_ids>  (130) 
[165, 141]

>  <energy_score>  (130) 
-20.475876679858004

>  <distance_score>  (130) 
1.3383938933894222

>  <path>  (130) 
/opt/xchem-fragalysis-2/maxwin/BulkDock/SCRATCH/505736/C2407-P141/C2407-P141.minimised.mol

>  <scratch_subdir>  (130) 
/opt/xchem-fragalysis-2/maxwin/BulkDock/SCRATCH/505736/C2407-P141

>  <fragmenstein_runtime>  (130) 
2.150239944458008

>  <fragmenstein_outcome>  (130) 
too moved

>  <fragmenstein_mode>  (130) 
expansion

>  <fragmenstein_error>  (130) 


$$$$
C2408-P165
     RDKit          3D

 46 50  0  0  0  0  0  0  0  0999 V2000
   -1.1481    1.1282   27.7672 C   0  0  0  0  0  0  0  0  0  0  0  0
   -1.5823   -0.1602   27.5047 C   0  0  0  0  0  0  0  0  0  0  0  0
   -1.4539   -1.1598   28.4615 C   0  0  0  0  0  0  0  0  0  0  0  0
   -0.8780   -0.8842   29.7080 C   0  0  0  0  0  0  0  0  0  0  0  0
   -0.2960   -2.0423   30.5060 C   0  0  0  0  0  0  0  0  0  0  0  0
    1.0815   -1.6741   30.7896 N   0  0  0  0  0  0  0  0  0  0  0  0
    1.5009   -2.4357   31.9528 N   0  0  0  0  0  0  0  0  0  0  0  0
    0.3599   -3.2937   32.4225 C   0  0  0  0  0  0  0  0  0  0  0  0
    0.4896   -3.3526   34.0212 C   0  0  0  0  0  0  0  0  0  0  0  0
    1.7638   -4.0171   34.5537 C   0  0  0  0  0  0  0  0  0  0  0  0
    2.9748   -3.3129   34.5779 C   0  0  0  0  0  0  0  0  0  0  0  0
    4.1412   -3.9681   34.9472 C   0  0  0  0  0  0  0  0  0  0  0  0
    4.1879   -5.2608   35.3212 N   0  0  0  0  0  0  0  0  0  0  0  0
    3.0077   -5.9113   35.3617 C   0  0  0  0  0  0  0  0  0  0  0  0
    1.7910   -5.3445   34.9949 C   0  0  0  0  0  0  0  0  0  0  0  0
    0.4305   -4.7173   31.7906 C   0  0  0  0  0  0  0  0  0  0  0  0
    1.3111   -4.9523   30.7878 C   0  0  0  0  0  0  0  0  0  0  0  0
    1.3051   -6.1849   30.0528 C   0  0  0  0  0  0  0  0  0  0  0  0
    0.4671   -7.1824   30.3643 C   0  0  0  0  0  0  0  0  0  0  0  0
   -0.3874   -7.0393   31.4667 C   0  0  0  0  0  0  0  0  0  0  0  0
   -1.2272   -7.8916   31.9986 N   0  0  0  0  0  0  0  0  0  0  0  0
   -1.7066   -7.3157   33.1326 N   0  0  0  0  0  0  0  0  0  0  0  0
   -1.2212   -6.0956   33.2054 C   0  0  0  0  0  0  0  0  0  0  0  0
   -0.3746   -5.8298   32.1661 N   0  0  0  0  0  0  0  0  0  0  0  0
   -0.7892   -2.4917   31.8447 N   0  0  0  0  0  0  0  0  0  0  0  0
   -0.5014    0.4452   29.9797 C   0  0  0  0  0  0  0  0  0  0  0  0
   -0.5949    1.4296   28.9989 C   0  0  0  0  0  0  0  0  0  0  0  0
   -1.2515    1.9006   27.0094 H   0  0  0  0  0  0  0  0  0  0  0  0
   -2.0003   -0.3943   26.5312 H   0  0  0  0  0  0  0  0  0  0  0  0
   -1.7264   -2.1744   28.1840 H   0  0  0  0  0  0  0  0  0  0  0  0
   -0.3122   -2.9226   29.8502 H   0  0  0  0  0  0  0  0  0  0  0  0
    1.6427   -1.8569   29.9545 H   0  0  0  0  0  0  0  0  0  0  0  0
    1.7236   -1.7684   32.6914 H   0  0  0  0  0  0  0  0  0  0  0  0
   -0.3892   -3.8067   34.4798 H   0  0  0  0  0  0  0  0  0  0  0  0
    0.4723   -2.3234   34.4109 H   0  0  0  0  0  0  0  0  0  0  0  0
    3.0393   -2.2670   34.2999 H   0  0  0  0  0  0  0  0  0  0  0  0
    5.0957   -3.4491   34.9522 H   0  0  0  0  0  0  0  0  0  0  0  0
    3.0569   -6.9391   35.7100 H   0  0  0  0  0  0  0  0  0  0  0  0
    0.8919   -5.9477   35.0574 H   0  0  0  0  0  0  0  0  0  0  0  0
    2.0125   -4.2089   30.4234 H   0  0  0  0  0  0  0  0  0  0  0  0
    2.0003   -6.2760   29.2232 H   0  0  0  0  0  0  0  0  0  0  0  0
    0.4663   -8.1306   29.8358 H   0  0  0  0  0  0  0  0  0  0  0  0
   -1.4507   -5.4012   33.9912 H   0  0  0  0  0  0  0  0  0  0  0  0
   -0.8255   -1.6323   32.3850 H   0  0  0  0  0  0  0  0  0  0  0  0
   -0.0086    0.6941   30.9169 H   0  0  0  0  0  0  0  0  0  0  0  0
   -0.2313    2.4366   29.1888 H   0  0  0  0  0  0  0  0  0  0  0  0
  1  2  2  0
  2  3  1  0
  3  4  2  0
  4  5  1  0
  5  6  1  0
  6  7  1  0
  7  8  1  0
  8  9  1  0
  9 10  1  0
 10 11  2  0
 11 12  1  0
 12 13  2  0
 13 14  1  0
 14 15  2  0
  8 16  1  0
 16 17  2  0
 17 18  1  0
 18 19  2  0
 19 20  1  0
 20 21  2  0
 21 22  1  0
 22 23  2  0
 23 24  1  0
  8 25  1  0
  4 26  1  0
 26 27  2  0
 27  1  1  0
 25  5  1  0
 15 10  1  0
 24 16  1  0
 24 20  1  0
  1 28  1  0
  2 29  1  0
  3 30  1  0
  5 31  1  0
  6 32  1  0
  7 33  1  0
  9 34  1  0
  9 35  1  0
 11 36  1  0
 12 37  1  0
 14 38  1  0
 15 39  1  0
 17 40  1  0
 18 41  1  0
 19 42  1  0
 23 43  1  0
 25 44  1  0
 26 45  1  0
 27 46  1  0
M  END
>  <Energy>  (131) 
86.096485200822158

>  <compound_id>  (131) 
2408

>  <target_id>  (131) 
1

>  <reference_id>  (131) 
165

>  <inspiration_ids>  (131) 
[165, 142]

>  <energy_score>  (131) 
-10.36118995642289

>  <distance_score>  (131) 
2.729214799174247

>  <path>  (131) 
/opt/xchem-fragalysis-2/maxwin/BulkDock/SCRATCH/505736/C2408-P165/C2408-P165.minimised.mol

>  <scratch_subdir>  (131) 
/opt/xchem-fragalysis-2/maxwin/BulkDock/SCRATCH/505736/C2408-P165

>  <fragmenstein_runtime>  (131) 
6.273489952087402

>  <fragmenstein_outcome>  (131) 
too moved

>  <fragmenstein_mode>  (131) 
expansion

>  <fragmenstein_error>  (131) 


$$$$
C2408-P142
     RDKit          3D

 46 50  0  0  0  0  0  0  0  0999 V2000
   -1.3396    0.2367   27.6287 C   0  0  0  0  0  0  0  0  0  0  0  0
   -1.7218   -1.0620   27.9390 C   0  0  0  0  0  0  0  0  0  0  0  0
   -1.5758   -1.5636   29.2272 C   0  0  0  0  0  0  0  0  0  0  0  0
   -1.0869   -0.7474   30.2430 C   0  0  0  0  0  0  0  0  0  0  0  0
   -1.0087   -1.1424   31.7193 C   0  0  0  0  0  0  0  0  0  0  0  0
    0.3183   -0.8107   32.2071 N   0  0  0  0  0  0  0  0  0  0  0  0
    1.0485   -2.0924   32.1035 N   0  0  0  0  0  0  0  0  0  0  0  0
    0.1094   -3.1537   32.5875 C   0  0  0  0  0  0  0  0  0  0  0  0
    0.3763   -3.2801   34.1640 C   0  0  0  0  0  0  0  0  0  0  0  0
    1.6972   -3.9486   34.5554 C   0  0  0  0  0  0  0  0  0  0  0  0
    2.9135   -3.3051   34.2990 C   0  0  0  0  0  0  0  0  0  0  0  0
    4.1051   -3.9549   34.5869 C   0  0  0  0  0  0  0  0  0  0  0  0
    4.1757   -5.1887   35.1249 N   0  0  0  0  0  0  0  0  0  0  0  0
    2.9982   -5.7765   35.4219 C   0  0  0  0  0  0  0  0  0  0  0  0
    1.7547   -5.2083   35.1622 C   0  0  0  0  0  0  0  0  0  0  0  0
    0.2721   -4.5339   31.8848 C   0  0  0  0  0  0  0  0  0  0  0  0
    1.0699   -4.6601   30.7979 C   0  0  0  0  0  0  0  0  0  0  0  0
    1.1050   -5.8756   30.0302 C   0  0  0  0  0  0  0  0  0  0  0  0
    0.3548   -6.9361   30.3563 C   0  0  0  0  0  0  0  0  0  0  0  0
   -0.4282   -6.8924   31.5157 C   0  0  0  0  0  0  0  0  0  0  0  0
   -1.1888   -7.8134   32.0511 N   0  0  0  0  0  0  0  0  0  0  0  0
   -1.6202   -7.3226   33.2426 N   0  0  0  0  0  0  0  0  0  0  0  0
   -1.1755   -6.0904   33.3581 C   0  0  0  0  0  0  0  0  0  0  0  0
   -0.4255   -5.7217   32.2748 N   0  0  0  0  0  0  0  0  0  0  0  0
   -1.1951   -2.5581   32.1604 N   0  0  0  0  0  0  0  0  0  0  0  0
   -0.6747    0.5633   29.8929 C   0  0  0  0  0  0  0  0  0  0  0  0
   -0.7905    1.0513   28.5996 C   0  0  0  0  0  0  0  0  0  0  0  0
   -1.5065    0.6148   26.6256 H   0  0  0  0  0  0  0  0  0  0  0  0
   -2.1843   -1.6792   27.1739 H   0  0  0  0  0  0  0  0  0  0  0  0
   -1.9023   -2.5826   29.4013 H   0  0  0  0  0  0  0  0  0  0  0  0
   -1.7636   -0.5410   32.2410 H   0  0  0  0  0  0  0  0  0  0  0  0
    0.2266   -0.5419   33.1883 H   0  0  0  0  0  0  0  0  0  0  0  0
    1.2156   -2.2176   31.1059 H   0  0  0  0  0  0  0  0  0  0  0  0
   -0.4582   -3.7736   34.6643 H   0  0  0  0  0  0  0  0  0  0  0  0
    0.3775   -2.2785   34.6181 H   0  0  0  0  0  0  0  0  0  0  0  0
    2.9488   -2.3092   33.8671 H   0  0  0  0  0  0  0  0  0  0  0  0
    5.0611   -3.4807   34.3835 H   0  0  0  0  0  0  0  0  0  0  0  0
    3.0729   -6.7519   35.8948 H   0  0  0  0  0  0  0  0  0  0  0  0
    0.8571   -5.7528   35.4365 H   0  0  0  0  0  0  0  0  0  0  0  0
    1.6843   -3.8700   30.3835 H   0  0  0  0  0  0  0  0  0  0  0  0
    1.7588   -5.8970   29.1629 H   0  0  0  0  0  0  0  0  0  0  0  0
    0.3819   -7.8714   29.8085 H   0  0  0  0  0  0  0  0  0  0  0  0
   -1.3706   -5.4594   34.2046 H   0  0  0  0  0  0  0  0  0  0  0  0
   -1.5184   -3.0570   31.3415 H   0  0  0  0  0  0  0  0  0  0  0  0
   -0.2565    1.2223   30.6519 H   0  0  0  0  0  0  0  0  0  0  0  0
   -0.4940    2.0685   28.3609 H   0  0  0  0  0  0  0  0  0  0  0  0
  1  2  2  0
  2  3  1  0
  3  4  2  0
  4  5  1  0
  5  6  1  0
  6  7  1  0
  7  8  1  0
  8  9  1  0
  9 10  1  0
 10 11  2  0
 11 12  1  0
 12 13  2  0
 13 14  1  0
 14 15  2  0
  8 16  1  0
 16 17  2  0
 17 18  1  0
 18 19  2  0
 19 20  1  0
 20 21  2  0
 21 22  1  0
 22 23  2  0
 23 24  1  0
  8 25  1  0
  4 26  1  0
 26 27  2  0
 27  1  1  0
 25  5  1  0
 15 10  1  0
 24 16  1  0
 24 20  1  0
  1 28  1  0
  2 29  1  0
  3 30  1  0
  5 31  1  0
  6 32  1  0
  7 33  1  0
  9 34  1  0
  9 35  1  0
 11 36  1  0
 12 37  1  0
 14 38  1  0
 15 39  1  0
 17 40  1  0
 18 41  1  0
 19 42  1  0
 23 43  1  0
 25 44  1  0
 26 45  1  0
 27 46  1  0
M  END
>  <Energy>  (132) 
82.955293554783623

>  <compound_id>  (132) 
2408

>  <target_id>  (132) 
1

>  <reference_id>  (132) 
142

>  <inspiration_ids>  (132) 
[165, 142]

>  <energy_score>  (132) 
-13.502381602461242

>  <distance_score>  (132) 
2.670179315994065

>  <path>  (132) 
/opt/xchem-fragalysis-2/maxwin/BulkDock/SCRATCH/505736/C2408-P142/C2408-P142.minimised.mol

>  <scratch_subdir>  (132) 
/opt/xchem-fragalysis-2/maxwin/BulkDock/SCRATCH/505736/C2408-P142

>  <fragmenstein_runtime>  (132) 
6.363178253173828

>  <fragmenstein_outcome>  (132) 
too moved

>  <fragmenstein_mode>  (132) 
expansion

>  <fragmenstein_error>  (132) 


$$$$
C2411-P165
     RDKit          3D

 42 45  0  0  0  0  0  0  0  0999 V2000
    4.5366   -3.2835   34.8924 C   0  0  0  0  0  0  0  0  0  0  0  0
    3.1525   -3.2512   34.9372 C   0  0  0  0  0  0  0  0  0  0  0  0
    2.4806   -4.3348   35.5019 C   0  0  0  0  0  0  0  0  0  0  0  0
    0.9840   -4.4749   35.3797 C   0  0  0  0  0  0  0  0  0  0  0  0
    0.6957   -5.8848   34.2774 S   0  0  0  0  0  0  0  0  0  0  0  0
   -0.4151   -5.2519   32.9331 C   0  0  0  0  0  0  0  0  0  0  0  0
   -0.8430   -6.5022   32.2661 N   0  0  0  0  0  0  0  0  0  0  0  0
   -1.5512   -7.5521   32.7637 C   0  0  0  0  0  0  0  0  0  0  0  0
   -1.7286   -8.4459   31.8166 N   0  0  0  0  0  0  0  0  0  0  0  0
   -0.9983   -8.0500   30.7275 N   0  0  0  0  0  0  0  0  0  0  0  0
   -0.3917   -6.9294   31.0487 C   0  0  0  0  0  0  0  0  0  0  0  0
    0.5552   -6.1468   30.2392 C   0  0  0  0  0  0  0  0  0  0  0  0
    1.1798   -4.9844   30.9894 C   0  0  0  0  0  0  0  0  0  0  0  0
    0.0950   -4.2066   31.7837 C   0  0  0  0  0  0  0  0  0  0  0  0
    0.6674   -2.8290   32.2649 C   0  0  0  0  0  0  0  0  0  0  0  0
    0.5319   -1.6385   31.3804 N   0  0  0  0  0  0  0  0  0  0  0  0
    0.4321   -1.9983   29.9613 C   0  0  0  0  0  0  0  0  0  0  0  0
   -0.6646   -3.0422   29.7077 C   0  0  0  0  0  0  0  0  0  0  0  0
   -1.0682   -3.8221   30.9112 N   0  0  0  0  0  0  0  0  0  0  0  0
    3.2435   -5.3663   36.0724 C   0  0  0  0  0  0  0  0  0  0  0  0
    4.6216   -5.3090   35.9745 C   0  0  0  0  0  0  0  0  0  0  0  0
    5.2831   -4.2975   35.3781 N   0  0  0  0  0  0  0  0  0  0  0  0
    5.1007   -2.4698   34.4443 H   0  0  0  0  0  0  0  0  0  0  0  0
    2.6264   -2.4043   34.5119 H   0  0  0  0  0  0  0  0  0  0  0  0
    0.5120   -3.5614   35.0183 H   0  0  0  0  0  0  0  0  0  0  0  0
    0.5563   -4.6946   36.3637 H   0  0  0  0  0  0  0  0  0  0  0  0
   -1.3110   -4.8444   33.4088 H   0  0  0  0  0  0  0  0  0  0  0  0
   -1.9031   -7.6276   33.7825 H   0  0  0  0  0  0  0  0  0  0  0  0
   -0.0101   -5.7339   29.4119 H   0  0  0  0  0  0  0  0  0  0  0  0
    1.3318   -6.7826   29.8145 H   0  0  0  0  0  0  0  0  0  0  0  0
    1.9518   -5.3572   31.6745 H   0  0  0  0  0  0  0  0  0  0  0  0
    1.7183   -4.3569   30.2743 H   0  0  0  0  0  0  0  0  0  0  0  0
    1.7333   -2.9456   32.4796 H   0  0  0  0  0  0  0  0  0  0  0  0
    0.1764   -2.5492   33.2015 H   0  0  0  0  0  0  0  0  0  0  0  0
   -0.3292   -1.1490   31.6262 H   0  0  0  0  0  0  0  0  0  0  0  0
    0.2229   -1.0949   29.3771 H   0  0  0  0  0  0  0  0  0  0  0  0
    1.4050   -2.3613   29.6148 H   0  0  0  0  0  0  0  0  0  0  0  0
   -1.5658   -2.5272   29.3540 H   0  0  0  0  0  0  0  0  0  0  0  0
   -0.3627   -3.7040   28.8920 H   0  0  0  0  0  0  0  0  0  0  0  0
   -1.6603   -3.1900   31.4552 H   0  0  0  0  0  0  0  0  0  0  0  0
    2.7732   -6.2276   36.5379 H   0  0  0  0  0  0  0  0  0  0  0  0
    5.2473   -6.0997   36.3781 H   0  0  0  0  0  0  0  0  0  0  0  0
  1  2  2  0
  2  3  1  0
  3  4  1  0
  4  5  1  0
  5  6  1  0
  6  7  1  0
  7  8  1  0
  8  9  2  0
  9 10  1  0
 10 11  2  0
 11 12  1  0
 12 13  1  0
 13 14  1  0
 14 15  1  0
 15 16  1  0
 16 17  1  0
 17 18  1  0
 18 19  1  0
  3 20  2  0
 20 21  1  0
 21 22  2  0
 22  1  1  0
 14  6  1  0
 11  7  1  0
 19 14  1  0
  1 23  1  0
  2 24  1  0
  4 25  1  0
  4 26  1  0
  6 27  1  0
  8 28  1  0
 12 29  1  0
 12 30  1  0
 13 31  1  0
 13 32  1  0
 15 33  1  0
 15 34  1  0
 16 35  1  0
 17 36  1  0
 17 37  1  0
 18 38  1  0
 18 39  1  0
 19 40  1  0
 20 41  1  0
 21 42  1  0
M  END
>  <Energy>  (133) 
143.2088502259563

>  <compound_id>  (133) 
2411

>  <target_id>  (133) 
1

>  <reference_id>  (133) 
165

>  <inspiration_ids>  (133) 
[165, 147]

>  <energy_score>  (133) 
-32.405126407187595

>  <distance_score>  (133) 
2.322556471815777

>  <path>  (133) 
/opt/xchem-fragalysis-2/maxwin/BulkDock/SCRATCH/505736/C2411-P165/C2411-P165.minimised.mol

>  <scratch_subdir>  (133) 
/opt/xchem-fragalysis-2/maxwin/BulkDock/SCRATCH/505736/C2411-P165

>  <fragmenstein_runtime>  (133) 
13.11461615562439

>  <fragmenstein_outcome>  (133) 
too moved

>  <fragmenstein_mode>  (133) 
expansion

>  <fragmenstein_error>  (133) 


$$$$
C2411-P147
     RDKit          3D

 42 45  0  0  0  0  0  0  0  0999 V2000
    4.6296   -3.3168   35.0271 C   0  0  0  0  0  0  0  0  0  0  0  0
    3.2478   -3.2602   34.9644 C   0  0  0  0  0  0  0  0  0  0  0  0
    2.5133   -4.3053   35.5272 C   0  0  0  0  0  0  0  0  0  0  0  0
    1.0366   -4.4420   35.2555 C   0  0  0  0  0  0  0  0  0  0  0  0
    0.8974   -5.8134   34.0726 S   0  0  0  0  0  0  0  0  0  0  0  0
   -0.3720   -5.2366   32.8647 C   0  0  0  0  0  0  0  0  0  0  0  0
   -0.8840   -6.4977   32.2985 N   0  0  0  0  0  0  0  0  0  0  0  0
   -1.5189   -7.5237   32.9238 C   0  0  0  0  0  0  0  0  0  0  0  0
   -1.7783   -8.4703   32.0507 N   0  0  0  0  0  0  0  0  0  0  0  0
   -1.1970   -8.1211   30.8632 N   0  0  0  0  0  0  0  0  0  0  0  0
   -0.5902   -6.9727   31.0533 C   0  0  0  0  0  0  0  0  0  0  0  0
    0.2393   -6.2265   30.1006 C   0  0  0  0  0  0  0  0  0  0  0  0
    0.9884   -5.0673   30.7315 C   0  0  0  0  0  0  0  0  0  0  0  0
    0.0508   -4.2405   31.6516 C   0  0  0  0  0  0  0  0  0  0  0  0
    0.7687   -2.9053   32.0388 C   0  0  0  0  0  0  0  0  0  0  0  0
    1.0979   -2.0196   30.9005 N   0  0  0  0  0  0  0  0  0  0  0  0
   -0.0739   -1.7284   30.0692 C   0  0  0  0  0  0  0  0  0  0  0  0
   -0.8839   -2.9847   29.7269 C   0  0  0  0  0  0  0  0  0  0  0  0
   -1.1950   -3.8074   30.9256 N   0  0  0  0  0  0  0  0  0  0  0  0
    3.2075   -5.3249   36.1959 C   0  0  0  0  0  0  0  0  0  0  0  0
    4.5902   -5.2942   36.1988 C   0  0  0  0  0  0  0  0  0  0  0  0
    5.3151   -4.3191   35.6139 N   0  0  0  0  0  0  0  0  0  0  0  0
    5.2434   -2.5378   34.5834 H   0  0  0  0  0  0  0  0  0  0  0  0
    2.7726   -2.4345   34.4484 H   0  0  0  0  0  0  0  0  0  0  0  0
    0.6169   -3.5170   34.8522 H   0  0  0  0  0  0  0  0  0  0  0  0
    0.4995   -4.6876   36.1770 H   0  0  0  0  0  0  0  0  0  0  0  0
   -1.2012   -4.7963   33.4258 H   0  0  0  0  0  0  0  0  0  0  0  0
   -1.7677   -7.5432   33.9750 H   0  0  0  0  0  0  0  0  0  0  0  0
   -0.4246   -5.8450   29.3253 H   0  0  0  0  0  0  0  0  0  0  0  0
    0.9544   -6.9006   29.6331 H   0  0  0  0  0  0  0  0  0  0  0  0
    1.8370   -5.4470   31.3135 H   0  0  0  0  0  0  0  0  0  0  0  0
    1.4389   -4.4668   29.9331 H   0  0  0  0  0  0  0  0  0  0  0  0
    0.1597   -2.3489   32.7624 H   0  0  0  0  0  0  0  0  0  0  0  0
    1.7138   -3.1470   32.5301 H   0  0  0  0  0  0  0  0  0  0  0  0
    1.5060   -1.1463   31.2320 H   0  0  0  0  0  0  0  0  0  0  0  0
   -0.7181   -1.0182   30.6027 H   0  0  0  0  0  0  0  0  0  0  0  0
    0.2509   -1.2375   29.1457 H   0  0  0  0  0  0  0  0  0  0  0  0
   -1.8333   -2.6769   29.2757 H   0  0  0  0  0  0  0  0  0  0  0  0
   -0.3703   -3.5781   28.9644 H   0  0  0  0  0  0  0  0  0  0  0  0
   -1.7309   -3.2007   31.5506 H   0  0  0  0  0  0  0  0  0  0  0  0
    2.6878   -6.1633   36.6500 H   0  0  0  0  0  0  0  0  0  0  0  0
    5.1683   -6.0799   36.6770 H   0  0  0  0  0  0  0  0  0  0  0  0
  1  2  2  0
  2  3  1  0
  3  4  1  0
  4  5  1  0
  5  6  1  0
  6  7  1  0
  7  8  1  0
  8  9  2  0
  9 10  1  0
 10 11  2  0
 11 12  1  0
 12 13  1  0
 13 14  1  0
 14 15  1  0
 15 16  1  0
 16 17  1  0
 17 18  1  0
 18 19  1  0
  3 20  2  0
 20 21  1  0
 21 22  2  0
 22  1  1  0
 14  6  1  0
 11  7  1  0
 19 14  1  0
  1 23  1  0
  2 24  1  0
  4 25  1  0
  4 26  1  0
  6 27  1  0
  8 28  1  0
 12 29  1  0
 12 30  1  0
 13 31  1  0
 13 32  1  0
 15 33  1  0
 15 34  1  0
 16 35  1  0
 17 36  1  0
 17 37  1  0
 18 38  1  0
 18 39  1  0
 19 40  1  0
 20 41  1  0
 21 42  1  0
M  END
>  <Energy>  (134) 
132.46114732713843

>  <compound_id>  (134) 
2411

>  <target_id>  (134) 
1

>  <reference_id>  (134) 
147

>  <inspiration_ids>  (134) 
[165, 147]

>  <energy_score>  (134) 
-43.15282930600637

>  <distance_score>  (134) 
2.312958651710037

>  <path>  (134) 
/opt/xchem-fragalysis-2/maxwin/BulkDock/SCRATCH/505736/C2411-P147/C2411-P147.minimised.mol

>  <scratch_subdir>  (134) 
/opt/xchem-fragalysis-2/maxwin/BulkDock/SCRATCH/505736/C2411-P147

>  <fragmenstein_runtime>  (134) 
13.275911808013916

>  <fragmenstein_outcome>  (134) 
too moved

>  <fragmenstein_mode>  (134) 
expansion

>  <fragmenstein_error>  (134) 


$$$$
C2411-P165
     RDKit          3D

 42 45  0  0  0  0  0  0  0  0999 V2000
    4.4914   -3.3073   35.6364 C   0  0  0  0  0  0  0  0  0  0  0  0
    3.1316   -3.5220   35.7867 C   0  0  0  0  0  0  0  0  0  0  0  0
    2.6822   -4.8261   35.9995 C   0  0  0  0  0  0  0  0  0  0  0  0
    1.2170   -5.1832   35.8933 C   0  0  0  0  0  0  0  0  0  0  0  0
    1.0697   -6.3655   34.5033 S   0  0  0  0  0  0  0  0  0  0  0  0
   -0.2578   -5.6332   33.4663 C   0  0  0  0  0  0  0  0  0  0  0  0
   -0.7646   -6.7370   32.6395 N   0  0  0  0  0  0  0  0  0  0  0  0
   -1.4844   -7.8172   33.0301 C   0  0  0  0  0  0  0  0  0  0  0  0
   -1.7509   -8.5614   31.9807 N   0  0  0  0  0  0  0  0  0  0  0  0
   -1.1511   -7.9928   30.8901 N   0  0  0  0  0  0  0  0  0  0  0  0
   -0.5308   -6.9114   31.3024 C   0  0  0  0  0  0  0  0  0  0  0  0
    0.2393   -5.9634   30.4806 C   0  0  0  0  0  0  0  0  0  0  0  0
    0.9075   -4.8894   31.3093 C   0  0  0  0  0  0  0  0  0  0  0  0
    0.0507   -4.3952   32.5070 C   0  0  0  0  0  0  0  0  0  0  0  0
    0.8781   -3.2381   33.1317 C   0  0  0  0  0  0  0  0  0  0  0  0
    0.0479   -2.2851   33.8765 N   0  0  0  0  0  0  0  0  0  0  0  0
   -0.8372   -1.5799   32.9159 C   0  0  0  0  0  0  0  0  0  0  0  0
   -1.2327   -2.4397   31.6885 C   0  0  0  0  0  0  0  0  0  0  0  0
   -1.3030   -3.8704   32.0502 N   0  0  0  0  0  0  0  0  0  0  0  0
    3.6409   -5.8324   36.1852 C   0  0  0  0  0  0  0  0  0  0  0  0
    4.9770   -5.5182   36.0229 C   0  0  0  0  0  0  0  0  0  0  0  0
    5.4201   -4.2816   35.7225 N   0  0  0  0  0  0  0  0  0  0  0  0
    4.8829   -2.3139   35.4359 H   0  0  0  0  0  0  0  0  0  0  0  0
    2.4438   -2.6895   35.6925 H   0  0  0  0  0  0  0  0  0  0  0  0
    0.8946   -5.6779   36.8155 H   0  0  0  0  0  0  0  0  0  0  0  0
    0.5847   -4.3044   35.7514 H   0  0  0  0  0  0  0  0  0  0  0  0
   -1.0725   -5.3803   34.1543 H   0  0  0  0  0  0  0  0  0  0  0  0
   -1.7806   -8.0229   34.0491 H   0  0  0  0  0  0  0  0  0  0  0  0
    1.0028   -6.5018   29.9104 H   0  0  0  0  0  0  0  0  0  0  0  0
   -0.4226   -5.4845   29.7562 H   0  0  0  0  0  0  0  0  0  0  0  0
    1.1731   -4.0608   30.6398 H   0  0  0  0  0  0  0  0  0  0  0  0
    1.8617   -5.2799   31.6903 H   0  0  0  0  0  0  0  0  0  0  0  0
    1.4161   -2.6703   32.3586 H   0  0  0  0  0  0  0  0  0  0  0  0
    1.6659   -3.6386   33.7542 H   0  0  0  0  0  0  0  0  0  0  0  0
    0.6321   -1.5828   34.3299 H   0  0  0  0  0  0  0  0  0  0  0  0
   -0.3475   -0.6642   32.5646 H   0  0  0  0  0  0  0  0  0  0  0  0
   -1.7392   -1.2809   33.4614 H   0  0  0  0  0  0  0  0  0  0  0  0
   -2.2117   -2.1160   31.3191 H   0  0  0  0  0  0  0  0  0  0  0  0
   -0.5208   -2.2974   30.8672 H   0  0  0  0  0  0  0  0  0  0  0  0
   -1.8824   -3.8569   32.9041 H   0  0  0  0  0  0  0  0  0  0  0  0
    3.3537   -6.8591   36.3909 H   0  0  0  0  0  0  0  0  0  0  0  0
    5.7484   -6.2763   36.1226 H   0  0  0  0  0  0  0  0  0  0  0  0
  1  2  2  0
  2  3  1  0
  3  4  1  0
  4  5  1  0
  5  6  1  0
  6  7  1  0
  7  8  1  0
  8  9  2  0
  9 10  1  0
 10 11  2  0
 11 12  1  0
 12 13  1  0
 13 14  1  0
 14 15  1  0
 15 16  1  0
 16 17  1  0
 17 18  1  0
 18 19  1  0
  3 20  2  0
 20 21  1  0
 21 22  2  0
 22  1  1  0
 14  6  1  0
 11  7  1  0
 19 14  1  0
  1 23  1  0
  2 24  1  0
  4 25  1  0
  4 26  1  0
  6 27  1  0
  8 28  1  0
 12 29  1  0
 12 30  1  0
 13 31  1  0
 13 32  1  0
 15 33  1  0
 15 34  1  0
 16 35  1  0
 17 36  1  0
 17 37  1  0
 18 38  1  0
 18 39  1  0
 19 40  1  0
 20 41  1  0
 21 42  1  0
M  END
>  <Energy>  (135) 
133.20097205345354

>  <compound_id>  (135) 
2411

>  <target_id>  (135) 
1

>  <reference_id>  (135) 
165

>  <inspiration_ids>  (135) 
[165, 148]

>  <energy_score>  (135) 
-46.062642082097454

>  <distance_score>  (135) 
1.0495727601393028

>  <path>  (135) 
/opt/xchem-fragalysis-2/maxwin/BulkDock/SCRATCH/505736/C2411-P165/C2411-P165.minimised.mol

>  <scratch_subdir>  (135) 
/opt/xchem-fragalysis-2/maxwin/BulkDock/SCRATCH/505736/C2411-P165

>  <fragmenstein_runtime>  (135) 
1.3181874752044678

>  <fragmenstein_outcome>  (135) 
too moved

>  <fragmenstein_mode>  (135) 
expansion

>  <fragmenstein_error>  (135) 


$$$$
C2411-P148
     RDKit          3D

 42 45  0  0  0  0  0  0  0  0999 V2000
    4.4980   -3.3003   35.5581 C   0  0  0  0  0  0  0  0  0  0  0  0
    3.1364   -3.4975   35.7155 C   0  0  0  0  0  0  0  0  0  0  0  0
    2.6726   -4.7939   35.9455 C   0  0  0  0  0  0  0  0  0  0  0  0
    1.2018   -5.1297   35.8643 C   0  0  0  0  0  0  0  0  0  0  0  0
    1.0115   -6.3538   34.5163 S   0  0  0  0  0  0  0  0  0  0  0  0
   -0.2825   -5.6114   33.4416 C   0  0  0  0  0  0  0  0  0  0  0  0
   -0.8016   -6.7290   32.6400 N   0  0  0  0  0  0  0  0  0  0  0  0
   -1.5658   -7.7712   33.0501 C   0  0  0  0  0  0  0  0  0  0  0  0
   -1.8052   -8.5592   32.0271 N   0  0  0  0  0  0  0  0  0  0  0  0
   -1.1549   -8.0526   30.9351 N   0  0  0  0  0  0  0  0  0  0  0  0
   -0.5374   -6.9576   31.3158 C   0  0  0  0  0  0  0  0  0  0  0  0
    0.2433   -6.0371   30.4683 C   0  0  0  0  0  0  0  0  0  0  0  0
    0.9155   -4.9475   31.2755 C   0  0  0  0  0  0  0  0  0  0  0  0
    0.0484   -4.4104   32.4475 C   0  0  0  0  0  0  0  0  0  0  0  0
    0.8699   -3.2398   33.0518 C   0  0  0  0  0  0  0  0  0  0  0  0
    0.0247   -2.2624   33.7467 N   0  0  0  0  0  0  0  0  0  0  0  0
   -0.8241   -1.5777   32.7381 C   0  0  0  0  0  0  0  0  0  0  0  0
   -1.2086   -2.4802   31.5372 C   0  0  0  0  0  0  0  0  0  0  0  0
   -1.2989   -3.8964   31.9549 N   0  0  0  0  0  0  0  0  0  0  0  0
    3.6206   -5.8094   36.1379 C   0  0  0  0  0  0  0  0  0  0  0  0
    4.9598   -5.5128   35.9667 C   0  0  0  0  0  0  0  0  0  0  0  0
    5.4149   -4.2845   35.6509 N   0  0  0  0  0  0  0  0  0  0  0  0
    4.9010   -2.3139   35.3458 H   0  0  0  0  0  0  0  0  0  0  0  0
    2.4589   -2.6570   35.6161 H   0  0  0  0  0  0  0  0  0  0  0  0
    0.8819   -5.5888   36.8056 H   0  0  0  0  0  0  0  0  0  0  0  0
    0.5811   -4.2461   35.7013 H   0  0  0  0  0  0  0  0  0  0  0  0
   -1.0987   -5.3247   34.1143 H   0  0  0  0  0  0  0  0  0  0  0  0
   -1.9041   -7.9235   34.0645 H   0  0  0  0  0  0  0  0  0  0  0  0
    0.9988   -6.5946   29.9102 H   0  0  0  0  0  0  0  0  0  0  0  0
   -0.4067   -5.5736   29.7220 H   0  0  0  0  0  0  0  0  0  0  0  0
    1.1998   -4.1412   30.5869 H   0  0  0  0  0  0  0  0  0  0  0  0
    1.8586   -5.3378   31.6817 H   0  0  0  0  0  0  0  0  0  0  0  0
    1.4298   -2.7005   32.2741 H   0  0  0  0  0  0  0  0  0  0  0  0
    1.6375   -3.6248   33.7076 H   0  0  0  0  0  0  0  0  0  0  0  0
    0.6020   -1.5505   34.1954 H   0  0  0  0  0  0  0  0  0  0  0  0
   -0.3079   -0.6865   32.3623 H   0  0  0  0  0  0  0  0  0  0  0  0
   -1.7321   -1.2401   33.2499 H   0  0  0  0  0  0  0  0  0  0  0  0
   -2.1786   -2.1624   31.1400 H   0  0  0  0  0  0  0  0  0  0  0  0
   -0.4822   -2.3768   30.7229 H   0  0  0  0  0  0  0  0  0  0  0  0
   -1.8878   -3.8359   32.8003 H   0  0  0  0  0  0  0  0  0  0  0  0
    3.3258   -6.8307   36.3604 H   0  0  0  0  0  0  0  0  0  0  0  0
    5.7230   -6.2787   36.0725 H   0  0  0  0  0  0  0  0  0  0  0  0
  1  2  2  0
  2  3  1  0
  3  4  1  0
  4  5  1  0
  5  6  1  0
  6  7  1  0
  7  8  1  0
  8  9  2  0
  9 10  1  0
 10 11  2  0
 11 12  1  0
 12 13  1  0
 13 14  1  0
 14 15  1  0
 15 16  1  0
 16 17  1  0
 17 18  1  0
 18 19  1  0
  3 20  2  0
 20 21  1  0
 21 22  2  0
 22  1  1  0
 14  6  1  0
 11  7  1  0
 19 14  1  0
  1 23  1  0
  2 24  1  0
  4 25  1  0
  4 26  1  0
  6 27  1  0
  8 28  1  0
 12 29  1  0
 12 30  1  0
 13 31  1  0
 13 32  1  0
 15 33  1  0
 15 34  1  0
 16 35  1  0
 17 36  1  0
 17 37  1  0
 18 38  1  0
 18 39  1  0
 19 40  1  0
 20 41  1  0
 21 42  1  0
M  END
>  <Energy>  (136) 
133.20071084768048

>  <compound_id>  (136) 
2411

>  <target_id>  (136) 
1

>  <reference_id>  (136) 
148

>  <inspiration_ids>  (136) 
[165, 148]

>  <energy_score>  (136) 
-46.06290328786929

>  <distance_score>  (136) 
1.018594745173486

>  <path>  (136) 
/opt/xchem-fragalysis-2/maxwin/BulkDock/SCRATCH/505736/C2411-P148/C2411-P148.minimised.mol

>  <scratch_subdir>  (136) 
/opt/xchem-fragalysis-2/maxwin/BulkDock/SCRATCH/505736/C2411-P148

>  <fragmenstein_runtime>  (136) 
1.5823674201965332

>  <fragmenstein_outcome>  (136) 
too moved

>  <fragmenstein_mode>  (136) 
expansion

>  <fragmenstein_error>  (136) 


$$$$
C2414-P165
     RDKit          3D

 30 33  0  0  0  0  0  0  0  0999 V2000
    0.6957   -6.1078   30.2894 C   0  0  0  0  0  0  0  0  0  0  0  0
   -0.1913   -7.2044   30.4565 C   0  0  0  0  0  0  0  0  0  0  0  0
   -0.7884   -7.4016   31.6698 C   0  0  0  0  0  0  0  0  0  0  0  0
   -0.4246   -6.5752   32.6485 C   0  0  0  0  0  0  0  0  0  0  0  0
   -1.0165   -7.0865   33.7318 C   0  0  0  0  0  0  0  0  0  0  0  0
   -0.6901   -6.5431   34.9603 C   0  0  0  0  0  0  0  0  0  0  0  0
    0.2105   -5.4525   35.0024 C   0  0  0  0  0  0  0  0  0  0  0  0
    0.7715   -4.9183   36.3052 C   0  0  0  0  0  0  0  0  0  0  0  0
    2.2894   -4.8464   36.2158 C   0  0  0  0  0  0  0  0  0  0  0  0
    2.9352   -3.6383   35.9265 C   0  0  0  0  0  0  0  0  0  0  0  0
    4.2807   -3.6687   35.5945 C   0  0  0  0  0  0  0  0  0  0  0  0
    5.0195   -4.7982   35.5521 N   0  0  0  0  0  0  0  0  0  0  0  0
    4.3899   -5.9455   35.8832 C   0  0  0  0  0  0  0  0  0  0  0  0
    3.0473   -6.0224   36.2167 C   0  0  0  0  0  0  0  0  0  0  0  0
    0.7124   -4.8956   33.7981 C   0  0  0  0  0  0  0  0  0  0  0  0
    0.4475   -5.5059   32.5794 C   0  0  0  0  0  0  0  0  0  0  0  0
    1.0009   -5.2333   31.3347 C   0  0  0  0  0  0  0  0  0  0  0  0
   -1.8150   -8.1856   33.3815 N   0  0  0  0  0  0  0  0  0  0  0  0
   -1.6705   -8.3859   32.1227 N   0  0  0  0  0  0  0  0  0  0  0  0
    1.1845   -5.9320   29.3360 H   0  0  0  0  0  0  0  0  0  0  0  0
   -0.3956   -7.9091   29.6615 H   0  0  0  0  0  0  0  0  0  0  0  0
   -1.0850   -6.9874   35.8690 H   0  0  0  0  0  0  0  0  0  0  0  0
    0.4940   -5.5669   37.1449 H   0  0  0  0  0  0  0  0  0  0  0  0
    0.3446   -3.9292   36.5093 H   0  0  0  0  0  0  0  0  0  0  0  0
    2.3921   -2.6989   35.9025 H   0  0  0  0  0  0  0  0  0  0  0  0
    4.8137   -2.7572   35.3393 H   0  0  0  0  0  0  0  0  0  0  0  0
    5.0114   -6.8357   35.8590 H   0  0  0  0  0  0  0  0  0  0  0  0
    2.5898   -6.9845   36.4238 H   0  0  0  0  0  0  0  0  0  0  0  0
    1.3818   -4.0405   33.8098 H   0  0  0  0  0  0  0  0  0  0  0  0
    1.6955   -4.4118   31.1903 H   0  0  0  0  0  0  0  0  0  0  0  0
  1  2  2  0
  2  3  1  0
  3  4  2  0
  4  5  1  0
  5  6  2  0
  6  7  1  0
  7  8  1  0
  8  9  1  0
  9 10  2  0
 10 11  1  0
 11 12  2  0
 12 13  1  0
 13 14  2  0
  7 15  2  0
 15 16  1  0
 16 17  2  0
  5 18  1  0
 18 19  2  0
 17  1  1  0
 19  3  1  0
 16  4  1  0
 14  9  1  0
  1 20  1  0
  2 21  1  0
  6 22  1  0
  8 23  1  0
  8 24  1  0
 10 25  1  0
 11 26  1  0
 13 27  1  0
 14 28  1  0
 15 29  1  0
 17 30  1  0
M  END
>  <Energy>  (137) 
86.144389432553567

>  <compound_id>  (137) 
2414

>  <target_id>  (137) 
1

>  <reference_id>  (137) 
165

>  <inspiration_ids>  (137) 
[165, 152]

>  <energy_score>  (137) 
-7.3567588992781765

>  <distance_score>  (137) 
1.666973790811843

>  <path>  (137) 
/opt/xchem-fragalysis-2/maxwin/BulkDock/SCRATCH/505736/C2414-P165/C2414-P165.minimised.mol

>  <scratch_subdir>  (137) 
/opt/xchem-fragalysis-2/maxwin/BulkDock/SCRATCH/505736/C2414-P165

>  <fragmenstein_runtime>  (137) 
1.9332859516143799

>  <fragmenstein_outcome>  (137) 
too moved

>  <fragmenstein_mode>  (137) 
expansion

>  <fragmenstein_error>  (137) 


$$$$
C2414-P152
     RDKit          3D

 30 33  0  0  0  0  0  0  0  0999 V2000
    0.3524   -5.8441   30.2723 C   0  0  0  0  0  0  0  0  0  0  0  0
   -0.4930   -6.9730   30.4313 C   0  0  0  0  0  0  0  0  0  0  0  0
   -0.9206   -7.3225   31.6826 C   0  0  0  0  0  0  0  0  0  0  0  0
   -0.4600   -6.5831   32.6892 C   0  0  0  0  0  0  0  0  0  0  0  0
   -0.9735   -7.1670   33.7761 C   0  0  0  0  0  0  0  0  0  0  0  0
   -0.5804   -6.6837   35.0103 C   0  0  0  0  0  0  0  0  0  0  0  0
    0.3012   -5.5779   35.0591 C   0  0  0  0  0  0  0  0  0  0  0  0
    0.8867   -5.0645   36.3586 C   0  0  0  0  0  0  0  0  0  0  0  0
    2.3954   -4.9341   36.2239 C   0  0  0  0  0  0  0  0  0  0  0  0
    2.9864   -3.6973   35.9373 C   0  0  0  0  0  0  0  0  0  0  0  0
    4.3221   -3.6707   35.5689 C   0  0  0  0  0  0  0  0  0  0  0  0
    5.1007   -4.7704   35.4886 N   0  0  0  0  0  0  0  0  0  0  0  0
    4.5259   -5.9460   35.8194 C   0  0  0  0  0  0  0  0  0  0  0  0
    3.1969   -6.0798   36.1864 C   0  0  0  0  0  0  0  0  0  0  0  0
    0.7282   -4.9549   33.8593 C   0  0  0  0  0  0  0  0  0  0  0  0
    0.3828   -5.4896   32.6258 C   0  0  0  0  0  0  0  0  0  0  0  0
    0.7918   -5.0887   31.3601 C   0  0  0  0  0  0  0  0  0  0  0  0
   -1.8065   -8.2379   33.4134 N   0  0  0  0  0  0  0  0  0  0  0  0
   -1.7602   -8.3466   32.1352 N   0  0  0  0  0  0  0  0  0  0  0  0
    0.6715   -5.5297   29.2839 H   0  0  0  0  0  0  0  0  0  0  0  0
   -0.8348   -7.5467   29.5821 H   0  0  0  0  0  0  0  0  0  0  0  0
   -0.9287   -7.1656   35.9175 H   0  0  0  0  0  0  0  0  0  0  0  0
    0.6602   -5.7493   37.1848 H   0  0  0  0  0  0  0  0  0  0  0  0
    0.4311   -4.0993   36.6097 H   0  0  0  0  0  0  0  0  0  0  0  0
    2.4083   -2.7789   35.9453 H   0  0  0  0  0  0  0  0  0  0  0  0
    4.8137   -2.7359   35.3149 H   0  0  0  0  0  0  0  0  0  0  0  0
    5.1809   -6.8111   35.7659 H   0  0  0  0  0  0  0  0  0  0  0  0
    2.7868   -7.0624   36.3950 H   0  0  0  0  0  0  0  0  0  0  0  0
    1.3705   -4.0792   33.8767 H   0  0  0  0  0  0  0  0  0  0  0  0
    1.4405   -4.2300   31.2179 H   0  0  0  0  0  0  0  0  0  0  0  0
  1  2  2  0
  2  3  1  0
  3  4  2  0
  4  5  1  0
  5  6  2  0
  6  7  1  0
  7  8  1  0
  8  9  1  0
  9 10  2  0
 10 11  1  0
 11 12  2  0
 12 13  1  0
 13 14  2  0
  7 15  2  0
 15 16  1  0
 16 17  2  0
  5 18  1  0
 18 19  2  0
 17  1  1  0
 19  3  1  0
 16  4  1  0
 14  9  1  0
  1 20  1  0
  2 21  1  0
  6 22  1  0
  8 23  1  0
  8 24  1  0
 10 25  1  0
 11 26  1  0
 13 27  1  0
 14 28  1  0
 15 29  1  0
 17 30  1  0
M  END
>  <Energy>  (138) 
84.625609172815786

>  <compound_id>  (138) 
2414

>  <target_id>  (138) 
1

>  <reference_id>  (138) 
152

>  <inspiration_ids>  (138) 
[165, 152]

>  <energy_score>  (138) 
-8.875539159014807

>  <distance_score>  (138) 
1.6738575245570912

>  <path>  (138) 
/opt/xchem-fragalysis-2/maxwin/BulkDock/SCRATCH/505736/C2414-P152/C2414-P152.minimised.mol

>  <scratch_subdir>  (138) 
/opt/xchem-fragalysis-2/maxwin/BulkDock/SCRATCH/505736/C2414-P152

>  <fragmenstein_runtime>  (138) 
1.9492931365966797

>  <fragmenstein_outcome>  (138) 
too moved

>  <fragmenstein_mode>  (138) 
expansion

>  <fragmenstein_error>  (138) 


$$$$
C2384-P165
     RDKit          3D

 63 68  0  0  0  0  0  0  0  0999 V2000
   -1.4195   -4.8395   31.9719 O   0  0  0  0  0  0  0  0  0  0  0  0
   -0.5573   -4.8046   31.1383 C   0  0  0  0  0  0  0  0  0  0  0  0
    0.0276   -3.6899   30.4400 N   0  0  0  0  0  0  0  0  0  0  0  0
   -0.1704   -2.2499   30.5926 C   0  0  0  0  0  0  0  0  0  0  0  0
    1.2520   -1.6535   30.4254 C   0  0  0  0  0  0  0  0  0  0  0  0
    1.9815   -1.8079   29.3441 N   0  0  0  0  0  0  0  0  0  0  0  0
    3.2919   -1.5922   29.6993 N   0  0  0  0  0  0  0  0  0  0  0  0
    3.3257   -1.3213   30.9866 C   0  0  0  0  0  0  0  0  0  0  0  0
    4.4982   -1.2041   31.7925 C   0  0  0  0  0  0  0  0  0  0  0  0
    5.8036   -1.1616   31.3435 C   0  0  0  0  0  0  0  0  0  0  0  0
    6.7456   -1.0530   32.4076 C   0  0  0  0  0  0  0  0  0  0  0  0
    6.1296   -1.0226   33.6383 C   0  0  0  0  0  0  0  0  0  0  0  0
    4.4283   -1.1324   33.5054 S   0  0  0  0  0  0  0  0  0  0  0  0
    2.0455   -1.2299   31.4493 N   0  0  0  0  0  0  0  0  0  0  0  0
   -0.8995   -1.7368   31.8565 C   0  0  0  0  0  0  0  0  0  0  0  0
   -2.1577   -1.5835   31.0095 C   0  0  0  0  0  0  0  0  0  0  0  0
   -1.2765   -1.6122   29.7432 C   0  0  0  0  0  0  0  0  0  0  0  0
    0.1848   -6.1462   30.7579 C   0  0  0  0  0  0  0  0  0  0  0  0
    1.6875   -5.8511   29.7227 S   0  0  0  0  0  0  0  0  0  0  0  0
   -0.8910   -7.3285   29.9628 Cl  0  0  0  0  0  0  0  0  0  0  0  0
    0.5586   -6.8800   32.0367 C   0  0  0  0  0  0  0  0  0  0  0  0
    1.6515   -6.2448   32.8056 N   0  0  0  0  0  0  0  0  0  0  0  0
    1.2213   -5.3503   33.7752 C   0  0  0  0  0  0  0  0  0  0  0  0
    1.6176   -4.0641   33.7788 C   0  0  0  0  0  0  0  0  0  0  0  0
    1.1889   -3.1392   34.8089 C   0  0  0  0  0  0  0  0  0  0  0  0
    0.3580   -3.5715   35.7784 C   0  0  0  0  0  0  0  0  0  0  0  0
    0.1460   -2.6241   37.2093 S   0  0  0  0  0  0  0  0  0  0  0  0
    1.2625   -3.5335   38.3557 C   0  0  0  0  0  0  0  0  0  0  0  0
    2.5242   -4.0734   37.7184 C   0  0  0  0  0  0  0  0  0  0  0  0
    3.5329   -3.2165   37.2649 C   0  0  0  0  0  0  0  0  0  0  0  0
    4.6207   -3.7616   36.5984 C   0  0  0  0  0  0  0  0  0  0  0  0
    4.7762   -5.0816   36.3636 N   0  0  0  0  0  0  0  0  0  0  0  0
    3.8139   -5.8973   36.8412 C   0  0  0  0  0  0  0  0  0  0  0  0
    2.6887   -5.4498   37.5165 C   0  0  0  0  0  0  0  0  0  0  0  0
   -0.1348   -4.8745   35.7094 N   0  0  0  0  0  0  0  0  0  0  0  0
   -1.0031   -5.5807   36.4953 C   0  0  0  0  0  0  0  0  0  0  0  0
   -1.0789   -6.8279   36.0914 N   0  0  0  0  0  0  0  0  0  0  0  0
   -0.2343   -6.9675   35.0228 N   0  0  0  0  0  0  0  0  0  0  0  0
    0.2976   -5.7876   34.7777 C   0  0  0  0  0  0  0  0  0  0  0  0
    0.7968   -4.0282   29.8587 H   0  0  0  0  0  0  0  0  0  0  0  0
    6.0692   -1.2035   30.2925 H   0  0  0  0  0  0  0  0  0  0  0  0
    7.8196   -1.0000   32.2739 H   0  0  0  0  0  0  0  0  0  0  0  0
    6.6008   -0.9434   34.6086 H   0  0  0  0  0  0  0  0  0  0  0  0
    1.7786   -1.0975   32.4119 H   0  0  0  0  0  0  0  0  0  0  0  0
   -0.9889   -2.4216   32.7028 H   0  0  0  0  0  0  0  0  0  0  0  0
   -0.5484   -0.7728   32.2458 H   0  0  0  0  0  0  0  0  0  0  0  0
   -2.8321   -2.4389   31.1139 H   0  0  0  0  0  0  0  0  0  0  0  0
   -2.7109   -0.6574   31.1804 H   0  0  0  0  0  0  0  0  0  0  0  0
   -1.0414   -0.6129   29.3576 H   0  0  0  0  0  0  0  0  0  0  0  0
   -1.6629   -2.2181   28.9196 H   0  0  0  0  0  0  0  0  0  0  0  0
    2.4354   -5.3927   30.7429 H   0  0  0  0  0  0  0  0  0  0  0  0
   -0.3352   -7.0503   32.6479 H   0  0  0  0  0  0  0  0  0  0  0  0
    0.8804   -7.8780   31.7754 H   0  0  0  0  0  0  0  0  0  0  0  0
    2.0791   -7.0116   33.3318 H   0  0  0  0  0  0  0  0  0  0  0  0
    2.3311   -3.7163   33.0402 H   0  0  0  0  0  0  0  0  0  0  0  0
    1.6588   -2.1629   34.8474 H   0  0  0  0  0  0  0  0  0  0  0  0
    0.6882   -4.3485   38.8102 H   0  0  0  0  0  0  0  0  0  0  0  0
    1.5348   -2.8551   39.1720 H   0  0  0  0  0  0  0  0  0  0  0  0
    3.4666   -2.1422   37.4047 H   0  0  0  0  0  0  0  0  0  0  0  0
    5.4206   -3.1300   36.2232 H   0  0  0  0  0  0  0  0  0  0  0  0
    3.9701   -6.9569   36.6603 H   0  0  0  0  0  0  0  0  0  0  0  0
    1.9481   -6.1696   37.8548 H   0  0  0  0  0  0  0  0  0  0  0  0
   -1.5328   -5.1479   37.3298 H   0  0  0  0  0  0  0  0  0  0  0  0
  1  2  2  0
  2  3  1  0
  3  4  1  0
  4  5  1  0
  5  6  2  0
  6  7  1  0
  7  8  2  0
  8  9  1  0
  9 10  2  0
 10 11  1  0
 11 12  2  0
 12 13  1  0
  8 14  1  0
  4 15  1  0
 15 16  1  0
 16 17  1  0
  2 18  1  0
 18 19  1  0
 18 20  1  0
 18 21  1  0
 21 22  1  0
 22 23  1  0
 23 24  2  0
 24 25  1  0
 25 26  2  0
 26 27  1  0
 27 28  1  0
 28 29  1  0
 29 30  2  0
 30 31  1  0
 31 32  2  0
 32 33  1  0
 33 34  2  0
 26 35  1  0
 35 36  1  0
 36 37  2  0
 37 38  1  0
 38 39  2  0
 17  4  1  0
 39 23  1  0
 14  5  1  0
 34 29  1  0
 39 35  1  0
 13  9  1  0
  3 40  1  0
 10 41  1  0
 11 42  1  0
 12 43  1  0
 14 44  1  0
 15 45  1  0
 15 46  1  0
 16 47  1  0
 16 48  1  0
 17 49  1  0
 17 50  1  0
 19 51  1  0
 21 52  1  0
 21 53  1  0
 22 54  1  0
 24 55  1  0
 25 56  1  0
 28 57  1  0
 28 58  1  0
 30 59  1  0
 31 60  1  0
 33 61  1  0
 34 62  1  0
 36 63  1  0
M  END
>  <Energy>  (139) 
153.49097320234318

>  <compound_id>  (139) 
2384

>  <target_id>  (139) 
1

>  <reference_id>  (139) 
165

>  <inspiration_ids>  (139) 
[165, 162]

>  <energy_score>  (139) 
-36.682172523384224

>  <distance_score>  (139) 
3.5603241840947812

>  <path>  (139) 
/opt/xchem-fragalysis-2/maxwin/BulkDock/SCRATCH/505736/C2384-P165/C2384-P165.minimised.mol

>  <scratch_subdir>  (139) 
/opt/xchem-fragalysis-2/maxwin/BulkDock/SCRATCH/505736/C2384-P165

>  <fragmenstein_runtime>  (139) 
10.712910175323486

>  <fragmenstein_outcome>  (139) 
too moved

>  <fragmenstein_mode>  (139) 
expansion

>  <fragmenstein_error>  (139) 


$$$$
C2384-P162
     RDKit          3D

 63 68  0  0  0  0  0  0  0  0999 V2000
   -0.3144   -3.4156   27.9490 O   0  0  0  0  0  0  0  0  0  0  0  0
    0.4852   -2.8854   28.5951 C   0  0  0  0  0  0  0  0  0  0  0  0
    0.4817   -1.5044   29.2300 N   0  0  0  0  0  0  0  0  0  0  0  0
   -0.5522   -0.5049   29.2887 C   0  0  0  0  0  0  0  0  0  0  0  0
   -1.2204   -0.9304   30.6455 C   0  0  0  0  0  0  0  0  0  0  0  0
   -2.0407   -1.9517   30.8096 N   0  0  0  0  0  0  0  0  0  0  0  0
   -1.8381   -2.4597   32.0824 N   0  0  0  0  0  0  0  0  0  0  0  0
   -0.9093   -1.7269   32.6587 C   0  0  0  0  0  0  0  0  0  0  0  0
   -0.3585   -1.8349   33.9709 C   0  0  0  0  0  0  0  0  0  0  0  0
    0.7794   -1.2107   34.4578 C   0  0  0  0  0  0  0  0  0  0  0  0
    0.8957   -1.3118   35.8755 C   0  0  0  0  0  0  0  0  0  0  0  0
   -0.1255   -2.0562   36.4174 C   0  0  0  0  0  0  0  0  0  0  0  0
   -1.1691   -2.6721   35.2147 S   0  0  0  0  0  0  0  0  0  0  0  0
   -0.5858   -0.6949   31.8270 N   0  0  0  0  0  0  0  0  0  0  0  0
   -0.1788    0.9578   29.0845 C   0  0  0  0  0  0  0  0  0  0  0  0
   -1.4543    1.1116   28.2279 C   0  0  0  0  0  0  0  0  0  0  0  0
   -1.4912   -0.4144   28.0787 C   0  0  0  0  0  0  0  0  0  0  0  0
    1.7234   -3.6910   28.9906 C   0  0  0  0  0  0  0  0  0  0  0  0
    2.9071   -2.8220   30.0795 S   0  0  0  0  0  0  0  0  0  0  0  0
    2.6153   -4.4184   27.6481 Cl  0  0  0  0  0  0  0  0  0  0  0  0
    0.8837   -4.7481   29.7478 C   0  0  0  0  0  0  0  0  0  0  0  0
    1.5667   -5.8826   30.3742 N   0  0  0  0  0  0  0  0  0  0  0  0
    1.0487   -6.0923   31.6424 C   0  0  0  0  0  0  0  0  0  0  0  0
    1.4277   -5.2475   32.6130 C   0  0  0  0  0  0  0  0  0  0  0  0
    0.8307   -5.2686   33.9064 C   0  0  0  0  0  0  0  0  0  0  0  0
    0.0221   -6.2757   34.2649 C   0  0  0  0  0  0  0  0  0  0  0  0
   -0.4026   -6.5582   35.9146 S   0  0  0  0  0  0  0  0  0  0  0  0
    0.8564   -5.6976   36.9284 C   0  0  0  0  0  0  0  0  0  0  0  0
    2.2862   -5.6419   36.4238 C   0  0  0  0  0  0  0  0  0  0  0  0
    2.9515   -4.4092   36.3060 C   0  0  0  0  0  0  0  0  0  0  0  0
    4.1977   -4.3633   35.7000 C   0  0  0  0  0  0  0  0  0  0  0  0
    4.8417   -5.4552   35.2486 N   0  0  0  0  0  0  0  0  0  0  0  0
    4.2289   -6.6427   35.4480 C   0  0  0  0  0  0  0  0  0  0  0  0
    2.9733   -6.7877   36.0226 C   0  0  0  0  0  0  0  0  0  0  0  0
   -0.4509   -7.1048   33.2337 N   0  0  0  0  0  0  0  0  0  0  0  0
   -1.3932   -8.0946   33.1957 C   0  0  0  0  0  0  0  0  0  0  0  0
   -1.5865   -8.5042   31.9588 N   0  0  0  0  0  0  0  0  0  0  0  0
   -0.7192   -7.8146   31.1476 N   0  0  0  0  0  0  0  0  0  0  0  0
   -0.0171   -7.0077   31.9175 C   0  0  0  0  0  0  0  0  0  0  0  0
    1.3838   -1.3287   29.6626 H   0  0  0  0  0  0  0  0  0  0  0  0
    1.4719   -0.6428   33.8491 H   0  0  0  0  0  0  0  0  0  0  0  0
    1.6768   -0.8490   36.4672 H   0  0  0  0  0  0  0  0  0  0  0  0
   -0.3026   -2.2885   37.4593 H   0  0  0  0  0  0  0  0  0  0  0  0
    0.1401   -0.0147   31.9820 H   0  0  0  0  0  0  0  0  0  0  0  0
   -0.1422    1.5913   29.9752 H   0  0  0  0  0  0  0  0  0  0  0  0
    0.7460    1.1081   28.5145 H   0  0  0  0  0  0  0  0  0  0  0  0
   -2.3276    1.4921   28.7606 H   0  0  0  0  0  0  0  0  0  0  0  0
   -1.3334    1.6746   27.2986 H   0  0  0  0  0  0  0  0  0  0  0  0
   -2.4767   -0.8766   28.1763 H   0  0  0  0  0  0  0  0  0  0  0  0
   -1.0452   -0.7429   27.1417 H   0  0  0  0  0  0  0  0  0  0  0  0
    3.6274   -3.9228   30.3497 H   0  0  0  0  0  0  0  0  0  0  0  0
    0.2806   -4.2106   30.5027 H   0  0  0  0  0  0  0  0  0  0  0  0
    0.1195   -5.2088   29.1223 H   0  0  0  0  0  0  0  0  0  0  0  0
    1.3241   -6.7063   29.8129 H   0  0  0  0  0  0  0  0  0  0  0  0
    2.2040   -4.5084   32.4503 H   0  0  0  0  0  0  0  0  0  0  0  0
    1.1420   -4.4760   34.5637 H   0  0  0  0  0  0  0  0  0  0  0  0
    0.4856   -4.6871   37.1120 H   0  0  0  0  0  0  0  0  0  0  0  0
    0.8694   -6.1910   37.9074 H   0  0  0  0  0  0  0  0  0  0  0  0
    2.4940   -3.4904   36.6506 H   0  0  0  0  0  0  0  0  0  0  0  0
    4.7252   -3.4235   35.5675 H   0  0  0  0  0  0  0  0  0  0  0  0
    4.7915   -7.5107   35.1144 H   0  0  0  0  0  0  0  0  0  0  0  0
    2.5332   -7.7744   36.1290 H   0  0  0  0  0  0  0  0  0  0  0  0
   -1.9095   -8.4549   34.0734 H   0  0  0  0  0  0  0  0  0  0  0  0
  1  2  2  0
  2  3  1  0
  3  4  1  0
  4  5  1  0
  5  6  2  0
  6  7  1  0
  7  8  2  0
  8  9  1  0
  9 10  2  0
 10 11  1  0
 11 12  2  0
 12 13  1  0
  8 14  1  0
  4 15  1  0
 15 16  1  0
 16 17  1  0
  2 18  1  0
 18 19  1  0
 18 20  1  0
 18 21  1  0
 21 22  1  0
 22 23  1  0
 23 24  2  0
 24 25  1  0
 25 26  2  0
 26 27  1  0
 27 28  1  0
 28 29  1  0
 29 30  2  0
 30 31  1  0
 31 32  2  0
 32 33  1  0
 33 34  2  0
 26 35  1  0
 35 36  1  0
 36 37  2  0
 37 38  1  0
 38 39  2  0
 17  4  1  0
 39 23  1  0
 14  5  1  0
 34 29  1  0
 39 35  1  0
 13  9  1  0
  3 40  1  0
 10 41  1  0
 11 42  1  0
 12 43  1  0
 14 44  1  0
 15 45  1  0
 15 46  1  0
 16 47  1  0
 16 48  1  0
 17 49  1  0
 17 50  1  0
 19 51  1  0
 21 52  1  0
 21 53  1  0
 22 54  1  0
 24 55  1  0
 25 56  1  0
 28 57  1  0
 28 58  1  0
 30 59  1  0
 31 60  1  0
 33 61  1  0
 34 62  1  0
 36 63  1  0
M  END
>  <Energy>  (140) 
197.59545782219178

>  <compound_id>  (140) 
2384

>  <target_id>  (140) 
1

>  <reference_id>  (140) 
162

>  <inspiration_ids>  (140) 
[165, 162]

>  <energy_score>  (140) 
-9.716094629661711

>  <distance_score>  (140) 
1.7322826994642604

>  <path>  (140) 
/opt/xchem-fragalysis-2/maxwin/BulkDock/SCRATCH/505736/C2384-P162/C2384-P162.minimised.mol

>  <scratch_subdir>  (140) 
/opt/xchem-fragalysis-2/maxwin/BulkDock/SCRATCH/505736/C2384-P162

>  <fragmenstein_runtime>  (140) 
7.8065025806427

>  <fragmenstein_outcome>  (140) 
too moved

>  <fragmenstein_mode>  (140) 
expansion

>  <fragmenstein_error>  (140) 


$$$$
C2419-P165
     RDKit          3D

 47 48  0  0  0  0  0  0  0  0999 V2000
   -1.5819   -8.6762   32.5041 C   0  0  0  0  0  0  0  0  0  0  0  0
   -2.0304   -7.6866   31.5746 N   0  0  0  0  0  0  0  0  0  0  0  0
   -1.0156   -7.3461   30.6767 N   0  0  0  0  0  0  0  0  0  0  0  0
   -0.1901   -6.4469   31.2743 C   0  0  0  0  0  0  0  0  0  0  0  0
    1.0834   -5.9944   31.0386 C   0  0  0  0  0  0  0  0  0  0  0  0
    1.4933   -5.2777   32.2045 C   0  0  0  0  0  0  0  0  0  0  0  0
    0.4235   -5.2537   33.0784 C   0  0  0  0  0  0  0  0  0  0  0  0
    0.1661   -4.6346   34.3976 C   0  0  0  0  0  0  0  0  0  0  0  0
    0.0011   -5.5295   35.6532 C   0  0  0  0  0  0  0  0  0  0  0  0
   -1.0393   -6.6327   35.4444 C   0  0  0  0  0  0  0  0  0  0  0  0
    1.2836   -6.1362   36.3123 C   0  0  0  0  0  0  0  0  0  0  0  0
    2.6005   -5.4416   35.9821 C   0  0  0  0  0  0  0  0  0  0  0  0
    2.8135   -4.0662   36.0948 C   0  0  0  0  0  0  0  0  0  0  0  0
    4.0167   -3.5381   35.6458 C   0  0  0  0  0  0  0  0  0  0  0  0
    5.0274   -4.2779   35.1431 N   0  0  0  0  0  0  0  0  0  0  0  0
    4.8349   -5.6089   35.1076 C   0  0  0  0  0  0  0  0  0  0  0  0
    3.6624   -6.2247   35.5070 C   0  0  0  0  0  0  0  0  0  0  0  0
    1.2247   -6.5131   37.7588 N   0  0  0  0  0  0  0  0  0  0  0  0
    0.3995   -7.7120   37.8631 O   0  0  0  0  0  0  0  0  0  0  0  0
    0.6639   -5.5210   38.6743 C   0  0  0  0  0  0  0  0  0  0  0  0
   -0.7285   -5.4067   38.5466 O   0  0  0  0  0  0  0  0  0  0  0  0
    0.9372   -5.8953   40.0536 N   0  0  0  0  0  0  0  0  0  0  0  0
    0.3145   -7.0761   40.4183 F   0  0  0  0  0  0  0  0  0  0  0  0
   -0.6212   -5.8001   32.3999 N   0  0  0  0  0  0  0  0  0  0  0  0
   -2.3004   -8.7354   33.3194 H   0  0  0  0  0  0  0  0  0  0  0  0
   -1.5085   -9.6027   31.9468 H   0  0  0  0  0  0  0  0  0  0  0  0
   -0.6098   -8.4523   32.9451 H   0  0  0  0  0  0  0  0  0  0  0  0
   -2.9559   -7.9002   31.2075 H   0  0  0  0  0  0  0  0  0  0  0  0
   -0.5763   -8.0913   30.1271 H   0  0  0  0  0  0  0  0  0  0  0  0
    1.6854   -6.2036   30.1685 H   0  0  0  0  0  0  0  0  0  0  0  0
    2.4616   -4.8255   32.3815 H   0  0  0  0  0  0  0  0  0  0  0  0
    0.8933   -3.8372   34.5579 H   0  0  0  0  0  0  0  0  0  0  0  0
   -0.7780   -4.0747   34.2973 H   0  0  0  0  0  0  0  0  0  0  0  0
   -0.4270   -4.8181   36.3666 H   0  0  0  0  0  0  0  0  0  0  0  0
   -1.4139   -7.0089   36.3938 H   0  0  0  0  0  0  0  0  0  0  0  0
   -1.8999   -6.2761   34.8870 H   0  0  0  0  0  0  0  0  0  0  0  0
   -0.6135   -7.4823   34.9072 H   0  0  0  0  0  0  0  0  0  0  0  0
    1.3965   -7.1032   35.7968 H   0  0  0  0  0  0  0  0  0  0  0  0
    2.0516   -3.4027   36.4895 H   0  0  0  0  0  0  0  0  0  0  0  0
    4.2043   -2.4686   35.6878 H   0  0  0  0  0  0  0  0  0  0  0  0
    5.6728   -6.1878   34.7310 H   0  0  0  0  0  0  0  0  0  0  0  0
    3.5782   -7.3038   35.4370 H   0  0  0  0  0  0  0  0  0  0  0  0
    0.9691   -8.3267   38.3683 H   0  0  0  0  0  0  0  0  0  0  0  0
    1.1156   -4.5406   38.4987 H   0  0  0  0  0  0  0  0  0  0  0  0
   -0.9808   -6.3454   38.5156 H   0  0  0  0  0  0  0  0  0  0  0  0
    0.5655   -5.1340   40.6173 H   0  0  0  0  0  0  0  0  0  0  0  0
   -1.5585   -5.9340   32.7488 H   0  0  0  0  0  0  0  0  0  0  0  0
  1  2  1  0
  2  3  1  0
  3  4  1  0
  4  5  2  0
  5  6  1  0
  6  7  2  0
  7  8  1  0
  8  9  1  0
  9 10  1  0
  9 11  1  0
 11 12  1  0
 12 13  2  0
 13 14  1  0
 14 15  2  0
 15 16  1  0
 16 17  2  0
 11 18  1  0
 18 19  1  0
 18 20  1  0
 20 21  1  0
 20 22  1  0
 22 23  1  0
  7 24  1  0
 24  4  1  0
 17 12  1  0
  1 25  1  0
  1 26  1  0
  1 27  1  0
  2 28  1  0
  3 29  1  0
  5 30  1  0
  6 31  1  0
  8 32  1  0
  8 33  1  0
  9 34  1  0
 10 35  1  0
 10 36  1  0
 10 37  1  0
 11 38  1  0
 13 39  1  0
 14 40  1  0
 16 41  1  0
 17 42  1  0
 19 43  1  0
 20 44  1  0
 21 45  1  0
 22 46  1  0
 24 47  1  0
M  END
>  <Energy>  (141) 
24.77560019037259

>  <compound_id>  (141) 
2419

>  <target_id>  (141) 
1

>  <reference_id>  (141) 
165

>  <inspiration_ids>  (141) 
[165, 164]

>  <energy_score>  (141) 
-52.60052694211156

>  <distance_score>  (141) 
1.0042129867484617

>  <path>  (141) 
/opt/xchem-fragalysis-2/maxwin/BulkDock/SCRATCH/505736/C2419-P165/C2419-P165.minimised.mol

>  <scratch_subdir>  (141) 
/opt/xchem-fragalysis-2/maxwin/BulkDock/SCRATCH/505736/C2419-P165

>  <fragmenstein_runtime>  (141) 
2.687884569168091

>  <fragmenstein_outcome>  (141) 
too moved

>  <fragmenstein_mode>  (141) 
expansion

>  <fragmenstein_error>  (141) 


$$$$
C2419-P164
     RDKit          3D

 47 48  0  0  0  0  0  0  0  0999 V2000
   -1.6368   -8.7161   32.5024 C   0  0  0  0  0  0  0  0  0  0  0  0
   -2.0464   -7.7066   31.5846 N   0  0  0  0  0  0  0  0  0  0  0  0
   -1.0211   -7.3891   30.6927 N   0  0  0  0  0  0  0  0  0  0  0  0
   -0.1870   -6.4961   31.2869 C   0  0  0  0  0  0  0  0  0  0  0  0
    1.0827   -6.0413   31.0369 C   0  0  0  0  0  0  0  0  0  0  0  0
    1.5060   -5.3248   32.1986 C   0  0  0  0  0  0  0  0  0  0  0  0
    0.4464   -5.3032   33.0845 C   0  0  0  0  0  0  0  0  0  0  0  0
    0.1968   -4.6800   34.4028 C   0  0  0  0  0  0  0  0  0  0  0  0
    0.0406   -5.5717   35.6613 C   0  0  0  0  0  0  0  0  0  0  0  0
   -0.9658   -6.7066   35.4578 C   0  0  0  0  0  0  0  0  0  0  0  0
    1.3304   -6.1414   36.3388 C   0  0  0  0  0  0  0  0  0  0  0  0
    2.6360   -5.4310   36.0008 C   0  0  0  0  0  0  0  0  0  0  0  0
    2.8279   -4.0514   36.0986 C   0  0  0  0  0  0  0  0  0  0  0  0
    4.0207   -3.5097   35.6384 C   0  0  0  0  0  0  0  0  0  0  0  0
    5.0400   -4.2395   35.1386 N   0  0  0  0  0  0  0  0  0  0  0  0
    4.8704   -5.5738   35.1225 C   0  0  0  0  0  0  0  0  0  0  0  0
    3.7094   -6.2031   35.5338 C   0  0  0  0  0  0  0  0  0  0  0  0
    1.2685   -6.4936   37.7887 N   0  0  0  0  0  0  0  0  0  0  0  0
    0.5020   -7.7290   37.9202 O   0  0  0  0  0  0  0  0  0  0  0  0
    0.6776   -5.5039   38.6873 C   0  0  0  0  0  0  0  0  0  0  0  0
   -0.7130   -5.4062   38.5359 O   0  0  0  0  0  0  0  0  0  0  0  0
    0.9312   -5.8721   40.0708 N   0  0  0  0  0  0  0  0  0  0  0  0
    0.2868   -7.0407   40.4367 F   0  0  0  0  0  0  0  0  0  0  0  0
   -0.6032   -5.8539   32.4197 N   0  0  0  0  0  0  0  0  0  0  0  0
   -2.3763   -8.7903   33.2981 H   0  0  0  0  0  0  0  0  0  0  0  0
   -1.5606   -9.6305   31.9253 H   0  0  0  0  0  0  0  0  0  0  0  0
   -0.6783   -8.4991   32.9708 H   0  0  0  0  0  0  0  0  0  0  0  0
   -2.9795   -7.8833   31.2200 H   0  0  0  0  0  0  0  0  0  0  0  0
   -0.5884   -8.1401   30.1430 H   0  0  0  0  0  0  0  0  0  0  0  0
    1.6718   -6.2453   30.1567 H   0  0  0  0  0  0  0  0  0  0  0  0
    2.4744   -4.8676   32.3626 H   0  0  0  0  0  0  0  0  0  0  0  0
   -0.7499   -4.1241   34.3061 H   0  0  0  0  0  0  0  0  0  0  0  0
    0.9208   -3.8784   34.5541 H   0  0  0  0  0  0  0  0  0  0  0  0
   -0.4122   -4.8656   36.3638 H   0  0  0  0  0  0  0  0  0  0  0  0
   -1.3153   -7.0958   36.4114 H   0  0  0  0  0  0  0  0  0  0  0  0
   -1.8447   -6.3792   34.9115 H   0  0  0  0  0  0  0  0  0  0  0  0
   -0.5175   -7.5411   34.9147 H   0  0  0  0  0  0  0  0  0  0  0  0
    1.4638   -7.1154   35.8418 H   0  0  0  0  0  0  0  0  0  0  0  0
    2.0576   -3.3954   36.4895 H   0  0  0  0  0  0  0  0  0  0  0  0
    4.1925   -2.4371   35.6682 H   0  0  0  0  0  0  0  0  0  0  0  0
    5.7175   -6.1438   34.7528 H   0  0  0  0  0  0  0  0  0  0  0  0
    3.6454   -7.2846   35.4811 H   0  0  0  0  0  0  0  0  0  0  0  0
    1.0256   -8.2265   38.5844 H   0  0  0  0  0  0  0  0  0  0  0  0
    1.1218   -4.5199   38.5130 H   0  0  0  0  0  0  0  0  0  0  0  0
   -0.9740   -6.3358   38.6396 H   0  0  0  0  0  0  0  0  0  0  0  0
    0.5741   -5.1016   40.6317 H   0  0  0  0  0  0  0  0  0  0  0  0
   -1.5360   -5.9843   32.7800 H   0  0  0  0  0  0  0  0  0  0  0  0
  1  2  1  0
  2  3  1  0
  3  4  1  0
  4  5  2  0
  5  6  1  0
  6  7  2  0
  7  8  1  0
  8  9  1  0
  9 10  1  0
  9 11  1  0
 11 12  1  0
 12 13  2  0
 13 14  1  0
 14 15  2  0
 15 16  1  0
 16 17  2  0
 11 18  1  0
 18 19  1  0
 18 20  1  0
 20 21  1  0
 20 22  1  0
 22 23  1  0
  7 24  1  0
 24  4  1  0
 17 12  1  0
  1 25  1  0
  1 26  1  0
  1 27  1  0
  2 28  1  0
  3 29  1  0
  5 30  1  0
  6 31  1  0
  8 32  1  0
  8 33  1  0
  9 34  1  0
 10 35  1  0
 10 36  1  0
 10 37  1  0
 11 38  1  0
 13 39  1  0
 14 40  1  0
 16 41  1  0
 17 42  1  0
 19 43  1  0
 20 44  1  0
 21 45  1  0
 22 46  1  0
 24 47  1  0
M  END
>  <Energy>  (142) 
25.692426489437906

>  <compound_id>  (142) 
2419

>  <target_id>  (142) 
1

>  <reference_id>  (142) 
164

>  <inspiration_ids>  (142) 
[165, 164]

>  <energy_score>  (142) 
-51.68370064304402

>  <distance_score>  (142) 
0.9859153026922979

>  <path>  (142) 
/opt/xchem-fragalysis-2/maxwin/BulkDock/SCRATCH/505736/C2419-P164/C2419-P164.minimised.mol

>  <scratch_subdir>  (142) 
/opt/xchem-fragalysis-2/maxwin/BulkDock/SCRATCH/505736/C2419-P164

>  <fragmenstein_runtime>  (142) 
2.775800943374634

>  <fragmenstein_outcome>  (142) 
acceptable

>  <fragmenstein_mode>  (142) 
expansion

>  <fragmenstein_error>  (142) 


$$$$
C2423-P165
     RDKit          3D

 46 49  0  0  0  0  0  0  0  0999 V2000
    5.1025   -3.5955   29.1790 O   0  0  0  0  0  0  0  0  0  0  0  0
    5.4855   -4.2771   30.3957 S   0  0  0  0  0  0  0  0  0  0  0  0
    6.2775   -3.6278   31.4154 O   0  0  0  0  0  0  0  0  0  0  0  0
    4.0610   -4.7933   31.1859 N   0  0  0  0  0  0  0  0  0  0  0  0
    2.7624   -4.2401   30.7349 C   0  0  0  0  0  0  0  0  0  0  0  0
    1.6211   -5.1194   31.2675 C   0  0  0  0  0  0  0  0  0  0  0  0
    1.2152   -5.0074   32.6740 C   0  0  0  0  0  0  0  0  0  0  0  0
    0.3220   -5.8604   33.2291 C   0  0  0  0  0  0  0  0  0  0  0  0
   -0.1293   -5.8958   34.9141 S   0  0  0  0  0  0  0  0  0  0  0  0
    0.8708   -4.6540   35.7825 C   0  0  0  0  0  0  0  0  0  0  0  0
    2.3643   -4.7870   35.6002 C   0  0  0  0  0  0  0  0  0  0  0  0
    3.1281   -3.6597   35.2636 C   0  0  0  0  0  0  0  0  0  0  0  0
    4.4663   -3.8291   34.9517 C   0  0  0  0  0  0  0  0  0  0  0  0
    5.0863   -5.0259   34.9722 N   0  0  0  0  0  0  0  0  0  0  0  0
    4.3641   -6.0829   35.3987 C   0  0  0  0  0  0  0  0  0  0  0  0
    3.0201   -6.0155   35.7243 C   0  0  0  0  0  0  0  0  0  0  0  0
   -0.3018   -6.7833   32.3656 N   0  0  0  0  0  0  0  0  0  0  0  0
   -1.2401   -7.7646   32.5727 C   0  0  0  0  0  0  0  0  0  0  0  0
   -1.5750   -8.3279   31.4323 N   0  0  0  0  0  0  0  0  0  0  0  0
   -0.8215   -7.7483   30.4414 N   0  0  0  0  0  0  0  0  0  0  0  0
   -0.0515   -6.8383   31.0009 C   0  0  0  0  0  0  0  0  0  0  0  0
    0.9521   -5.9802   30.4714 C   0  0  0  0  0  0  0  0  0  0  0  0
    6.3455   -5.8023   29.9118 C   0  0  0  0  0  0  0  0  0  0  0  0
    6.0082   -6.3920   28.6816 C   0  0  0  0  0  0  0  0  0  0  0  0
    6.6595   -7.5293   28.2346 C   0  0  0  0  0  0  0  0  0  0  0  0
    7.6449   -8.0708   29.0407 C   0  0  0  0  0  0  0  0  0  0  0  0
    8.2913   -9.1963   28.6709 O   0  0  0  0  0  0  0  0  0  0  0  0
    8.0147   -7.4954   30.2535 C   0  0  0  0  0  0  0  0  0  0  0  0
    7.3724   -6.3393   30.6941 C   0  0  0  0  0  0  0  0  0  0  0  0
    4.2132   -4.6831   32.1945 H   0  0  0  0  0  0  0  0  0  0  0  0
    2.7196   -4.2274   29.6405 H   0  0  0  0  0  0  0  0  0  0  0  0
    2.6492   -3.2132   31.0981 H   0  0  0  0  0  0  0  0  0  0  0  0
    1.6782   -4.1986   33.2155 H   0  0  0  0  0  0  0  0  0  0  0  0
    0.5297   -3.6658   35.4534 H   0  0  0  0  0  0  0  0  0  0  0  0
    0.6467   -4.7251   36.8526 H   0  0  0  0  0  0  0  0  0  0  0  0
    2.6853   -2.6697   35.2037 H   0  0  0  0  0  0  0  0  0  0  0  0
    5.0902   -2.9878   34.6592 H   0  0  0  0  0  0  0  0  0  0  0  0
    4.9116   -7.0190   35.4662 H   0  0  0  0  0  0  0  0  0  0  0  0
    2.4948   -6.9114   36.0407 H   0  0  0  0  0  0  0  0  0  0  0  0
   -1.6385   -8.0211   33.5446 H   0  0  0  0  0  0  0  0  0  0  0  0
    1.2134   -6.0680   29.4267 H   0  0  0  0  0  0  0  0  0  0  0  0
    5.2404   -5.9403   28.0556 H   0  0  0  0  0  0  0  0  0  0  0  0
    6.3983   -7.9676   27.2767 H   0  0  0  0  0  0  0  0  0  0  0  0
    8.0322   -9.4486   27.7691 H   0  0  0  0  0  0  0  0  0  0  0  0
    8.8040   -7.9478   30.8492 H   0  0  0  0  0  0  0  0  0  0  0  0
    7.6627   -5.8749   31.6333 H   0  0  0  0  0  0  0  0  0  0  0  0
  1  2  2  0
  2  3  2  0
  2  4  1  0
  4  5  1  0
  5  6  1  0
  6  7  1  0
  7  8  2  0
  8  9  1  0
  9 10  1  0
 10 11  1  0
 11 12  2  0
 12 13  1  0
 13 14  2  0
 14 15  1  0
 15 16  2  0
  8 17  1  0
 17 18  1  0
 18 19  2  0
 19 20  1  0
 20 21  2  0
 21 22  1  0
  2 23  1  0
 23 24  2  0
 24 25  1  0
 25 26  2  0
 26 27  1  0
 26 28  1  0
 28 29  2  0
 22  6  2  0
 29 23  1  0
 16 11  1  0
 21 17  1  0
  4 30  1  0
  5 31  1  0
  5 32  1  0
  7 33  1  0
 10 34  1  0
 10 35  1  0
 12 36  1  0
 13 37  1  0
 15 38  1  0
 16 39  1  0
 18 40  1  0
 22 41  1  0
 24 42  1  0
 25 43  1  0
 27 44  1  0
 28 45  1  0
 29 46  1  0
M  END
>  <Energy>  (143) 
-4.8438301207450802

>  <compound_id>  (143) 
2423

>  <target_id>  (143) 
1

>  <reference_id>  (143) 
165

>  <inspiration_ids>  (143) 
[165, 175]

>  <energy_score>  (143) 
-39.4508364308908

>  <distance_score>  (143) 
2.138788580427303

>  <path>  (143) 
/opt/xchem-fragalysis-2/maxwin/BulkDock/SCRATCH/505736/C2423-P165/C2423-P165.minimised.mol

>  <scratch_subdir>  (143) 
/opt/xchem-fragalysis-2/maxwin/BulkDock/SCRATCH/505736/C2423-P165

>  <fragmenstein_runtime>  (143) 
9.568439483642578

>  <fragmenstein_outcome>  (143) 
too moved

>  <fragmenstein_mode>  (143) 
expansion

>  <fragmenstein_error>  (143) 


$$$$
C2423-P175
     RDKit          3D

 46 49  0  0  0  0  0  0  0  0999 V2000
    5.4993   -3.8430   28.6737 O   0  0  0  0  0  0  0  0  0  0  0  0
    5.4298   -4.6788   29.8510 S   0  0  0  0  0  0  0  0  0  0  0  0
    5.8079   -4.1961   31.1590 O   0  0  0  0  0  0  0  0  0  0  0  0
    3.7864   -5.2214   29.9193 N   0  0  0  0  0  0  0  0  0  0  0  0
    2.9540   -4.5163   30.9516 C   0  0  0  0  0  0  0  0  0  0  0  0
    1.6776   -5.2912   31.3009 C   0  0  0  0  0  0  0  0  0  0  0  0
    1.1627   -5.0980   32.6662 C   0  0  0  0  0  0  0  0  0  0  0  0
    0.2411   -5.9261   33.2051 C   0  0  0  0  0  0  0  0  0  0  0  0
   -0.2770   -5.8969   34.8695 S   0  0  0  0  0  0  0  0  0  0  0  0
    0.7329   -4.6594   35.7364 C   0  0  0  0  0  0  0  0  0  0  0  0
    2.2276   -4.8567   35.6415 C   0  0  0  0  0  0  0  0  0  0  0  0
    3.0526   -3.7846   35.2701 C   0  0  0  0  0  0  0  0  0  0  0  0
    4.4045   -4.0161   35.0761 C   0  0  0  0  0  0  0  0  0  0  0  0
    4.9868   -5.2176   35.2614 N   0  0  0  0  0  0  0  0  0  0  0  0
    4.1937   -6.2193   35.6943 C   0  0  0  0  0  0  0  0  0  0  0  0
    2.8293   -6.0916   35.8990 C   0  0  0  0  0  0  0  0  0  0  0  0
   -0.3440   -6.8690   32.3402 N   0  0  0  0  0  0  0  0  0  0  0  0
   -1.3043   -7.8293   32.5270 C   0  0  0  0  0  0  0  0  0  0  0  0
   -1.5931   -8.4168   31.3867 N   0  0  0  0  0  0  0  0  0  0  0  0
   -0.7817   -7.8799   30.4191 N   0  0  0  0  0  0  0  0  0  0  0  0
   -0.0201   -6.9725   30.9931 C   0  0  0  0  0  0  0  0  0  0  0  0
    1.0511   -6.1762   30.5001 C   0  0  0  0  0  0  0  0  0  0  0  0
    6.3788   -6.1690   29.5130 C   0  0  0  0  0  0  0  0  0  0  0  0
    7.3626   -6.6268   30.3956 C   0  0  0  0  0  0  0  0  0  0  0  0
    8.0690   -7.7796   30.0841 C   0  0  0  0  0  0  0  0  0  0  0  0
    7.8043   -8.4367   28.8957 C   0  0  0  0  0  0  0  0  0  0  0  0
    8.4372   -9.5825   28.5753 O   0  0  0  0  0  0  0  0  0  0  0  0
    6.8826   -7.9579   27.9881 C   0  0  0  0  0  0  0  0  0  0  0  0
    6.1546   -6.8232   28.3030 C   0  0  0  0  0  0  0  0  0  0  0  0
    3.4013   -5.0164   28.9922 H   0  0  0  0  0  0  0  0  0  0  0  0
    3.5398   -4.4207   31.8716 H   0  0  0  0  0  0  0  0  0  0  0  0
    2.6908   -3.5169   30.5894 H   0  0  0  0  0  0  0  0  0  0  0  0
    1.5955   -4.2707   33.2066 H   0  0  0  0  0  0  0  0  0  0  0  0
    0.4492   -3.6722   35.3543 H   0  0  0  0  0  0  0  0  0  0  0  0
    0.4516   -4.6769   36.7954 H   0  0  0  0  0  0  0  0  0  0  0  0
    2.6510   -2.7907   35.0973 H   0  0  0  0  0  0  0  0  0  0  0  0
    5.0732   -3.2215   34.7556 H   0  0  0  0  0  0  0  0  0  0  0  0
    4.7007   -7.1627   35.8763 H   0  0  0  0  0  0  0  0  0  0  0  0
    2.2510   -6.9461   36.2378 H   0  0  0  0  0  0  0  0  0  0  0  0
   -1.7520   -8.0526   33.4848 H   0  0  0  0  0  0  0  0  0  0  0  0
    1.4093   -6.3594   29.4992 H   0  0  0  0  0  0  0  0  0  0  0  0
    7.5607   -6.0993   31.3265 H   0  0  0  0  0  0  0  0  0  0  0  0
    8.8126   -8.1528   30.7823 H   0  0  0  0  0  0  0  0  0  0  0  0
    9.0692   -9.8127   29.2765 H   0  0  0  0  0  0  0  0  0  0  0  0
    6.7366   -8.4626   27.0367 H   0  0  0  0  0  0  0  0  0  0  0  0
    5.4350   -6.4371   27.5849 H   0  0  0  0  0  0  0  0  0  0  0  0
  1  2  2  0
  2  3  2  0
  2  4  1  0
  4  5  1  0
  5  6  1  0
  6  7  1  0
  7  8  2  0
  8  9  1  0
  9 10  1  0
 10 11  1  0
 11 12  2  0
 12 13  1  0
 13 14  2  0
 14 15  1  0
 15 16  2  0
  8 17  1  0
 17 18  1  0
 18 19  2  0
 19 20  1  0
 20 21  2  0
 21 22  1  0
  2 23  1  0
 23 24  2  0
 24 25  1  0
 25 26  2  0
 26 27  1  0
 26 28  1  0
 28 29  2  0
 22  6  2  0
 29 23  1  0
 16 11  1  0
 21 17  1  0
  4 30  1  0
  5 31  1  0
  5 32  1  0
  7 33  1  0
 10 34  1  0
 10 35  1  0
 12 36  1  0
 13 37  1  0
 15 38  1  0
 16 39  1  0
 18 40  1  0
 22 41  1  0
 24 42  1  0
 25 43  1  0
 27 44  1  0
 28 45  1  0
 29 46  1  0
M  END
>  <Energy>  (144) 
0.70893614507207392

>  <compound_id>  (144) 
2423

>  <target_id>  (144) 
1

>  <reference_id>  (144) 
175

>  <inspiration_ids>  (144) 
[165, 175]

>  <energy_score>  (144) 
-33.898070165071914

>  <distance_score>  (144) 
2.2384936410564005

>  <path>  (144) 
/opt/xchem-fragalysis-2/maxwin/BulkDock/SCRATCH/505736/C2423-P175/C2423-P175.minimised.mol

>  <scratch_subdir>  (144) 
/opt/xchem-fragalysis-2/maxwin/BulkDock/SCRATCH/505736/C2423-P175

>  <fragmenstein_runtime>  (144) 
9.847728729248047

>  <fragmenstein_outcome>  (144) 
too moved

>  <fragmenstein_mode>  (144) 
expansion

>  <fragmenstein_error>  (144) 


$$$$
C2428-P165
     RDKit          3D

 49 52  0  0  0  0  0  0  0  0999 V2000
   -0.5135    1.9498   27.7210 N   0  0  0  0  0  0  0  0  0  0  0  0
   -0.6214    0.8713   28.5942 C   0  0  0  0  0  0  0  0  0  0  0  0
   -1.1984   -0.3194   28.1804 C   0  0  0  0  0  0  0  0  0  0  0  0
   -1.3224   -1.3629   29.0925 C   0  0  0  0  0  0  0  0  0  0  0  0
   -0.8610   -1.1712   30.3902 C   0  0  0  0  0  0  0  0  0  0  0  0
   -0.9007   -2.4723   31.5574 S   0  0  0  0  0  0  0  0  0  0  0  0
   -2.1649   -3.1650   31.4439 O   0  0  0  0  0  0  0  0  0  0  0  0
   -0.4042   -1.9977   32.8297 O   0  0  0  0  0  0  0  0  0  0  0  0
    0.2442   -3.4704   30.8773 N   0  0  0  0  0  0  0  0  0  0  0  0
    1.6762   -3.2949   31.1519 C   0  0  0  0  0  0  0  0  0  0  0  0
    2.3726   -4.6563   30.9716 C   0  0  0  0  0  0  0  0  0  0  0  0
    1.4881   -5.7512   31.5194 C   0  0  0  0  0  0  0  0  0  0  0  0
    1.3796   -5.8711   32.9626 C   0  0  0  0  0  0  0  0  0  0  0  0
    0.3424   -6.5197   33.5268 C   0  0  0  0  0  0  0  0  0  0  0  0
    0.0978   -6.6267   35.2452 S   0  0  0  0  0  0  0  0  0  0  0  0
    0.5659   -4.9790   35.8904 C   0  0  0  0  0  0  0  0  0  0  0  0
    2.0515   -4.7014   35.8327 C   0  0  0  0  0  0  0  0  0  0  0  0
    2.5201   -3.5057   35.2722 C   0  0  0  0  0  0  0  0  0  0  0  0
    3.8836   -3.3572   35.0691 C   0  0  0  0  0  0  0  0  0  0  0  0
    4.7971   -4.2967   35.3934 N   0  0  0  0  0  0  0  0  0  0  0  0
    4.3358   -5.4059   36.0081 C   0  0  0  0  0  0  0  0  0  0  0  0
    2.9947   -5.6451   36.2594 C   0  0  0  0  0  0  0  0  0  0  0  0
   -0.5161   -7.2095   32.6557 N   0  0  0  0  0  0  0  0  0  0  0  0
   -1.5947   -8.0151   32.8727 C   0  0  0  0  0  0  0  0  0  0  0  0
   -2.0697   -8.4635   31.7320 N   0  0  0  0  0  0  0  0  0  0  0  0
   -1.2966   -7.9657   30.7229 N   0  0  0  0  0  0  0  0  0  0  0  0
   -0.3638   -7.2291   31.2763 C   0  0  0  0  0  0  0  0  0  0  0  0
    0.6672   -6.4496   30.7159 C   0  0  0  0  0  0  0  0  0  0  0  0
   -0.2763    0.0299   30.7208 C   0  0  0  0  0  0  0  0  0  0  0  0
   -0.1342    1.0449   29.8374 N   0  0  0  0  0  0  0  0  0  0  0  0
   -1.4280    2.2039   27.3525 H   0  0  0  0  0  0  0  0  0  0  0  0
   -0.1266    2.7278   28.2516 H   0  0  0  0  0  0  0  0  0  0  0  0
   -1.5568   -0.4372   27.1620 H   0  0  0  0  0  0  0  0  0  0  0  0
   -1.7715   -2.3001   28.7753 H   0  0  0  0  0  0  0  0  0  0  0  0
   -0.0058   -3.7803   29.9363 H   0  0  0  0  0  0  0  0  0  0  0  0
    2.1041   -2.5598   30.4635 H   0  0  0  0  0  0  0  0  0  0  0  0
    1.8364   -2.9441   32.1757 H   0  0  0  0  0  0  0  0  0  0  0  0
    2.5522   -4.8243   29.9015 H   0  0  0  0  0  0  0  0  0  0  0  0
    3.3572   -4.6528   31.4526 H   0  0  0  0  0  0  0  0  0  0  0  0
    2.1724   -5.4014   33.5172 H   0  0  0  0  0  0  0  0  0  0  0  0
    0.2448   -4.9224   36.9362 H   0  0  0  0  0  0  0  0  0  0  0  0
    0.0004   -4.2207   35.3371 H   0  0  0  0  0  0  0  0  0  0  0  0
    1.8355   -2.7252   34.9508 H   0  0  0  0  0  0  0  0  0  0  0  0
    4.2865   -2.4551   34.6171 H   0  0  0  0  0  0  0  0  0  0  0  0
    5.0969   -6.1235   36.3010 H   0  0  0  0  0  0  0  0  0  0  0  0
    2.6945   -6.5706   36.7411 H   0  0  0  0  0  0  0  0  0  0  0  0
   -1.9791   -8.2444   33.8552 H   0  0  0  0  0  0  0  0  0  0  0  0
    0.6997   -6.3208   29.6487 H   0  0  0  0  0  0  0  0  0  0  0  0
    0.1279    0.2281   31.7093 H   0  0  0  0  0  0  0  0  0  0  0  0
  1  2  1  0
  2  3  2  0
  3  4  1  0
  4  5  2  0
  5  6  1  0
  6  7  2  0
  6  8  2  0
  6  9  1  0
  9 10  1  0
 10 11  1  0
 11 12  1  0
 12 13  1  0
 13 14  2  0
 14 15  1  0
 15 16  1  0
 16 17  1  0
 17 18  2  0
 18 19  1  0
 19 20  2  0
 20 21  1  0
 21 22  2  0
 14 23  1  0
 23 24  1  0
 24 25  2  0
 25 26  1  0
 26 27  2  0
 27 28  1  0
  5 29  1  0
 29 30  2  0
 30  2  1  0
 28 12  2  0
 22 17  1  0
 27 23  1  0
  1 31  1  0
  1 32  1  0
  3 33  1  0
  4 34  1  0
  9 35  1  0
 10 36  1  0
 10 37  1  0
 11 38  1  0
 11 39  1  0
 13 40  1  0
 16 41  1  0
 16 42  1  0
 18 43  1  0
 19 44  1  0
 21 45  1  0
 22 46  1  0
 24 47  1  0
 28 48  1  0
 29 49  1  0
M  END
>  <Energy>  (145) 
-30.495947897736251

>  <compound_id>  (145) 
2428

>  <target_id>  (145) 
1

>  <reference_id>  (145) 
165

>  <inspiration_ids>  (145) 
[165, 190]

>  <energy_score>  (145) 
-49.43499223568489

>  <distance_score>  (145) 
0.6244458995184033

>  <path>  (145) 
/opt/xchem-fragalysis-2/maxwin/BulkDock/SCRATCH/505736/C2428-P165/C2428-P165.minimised.mol

>  <scratch_subdir>  (145) 
/opt/xchem-fragalysis-2/maxwin/BulkDock/SCRATCH/505736/C2428-P165

>  <fragmenstein_runtime>  (145) 
3.7588038444519043

>  <fragmenstein_outcome>  (145) 
acceptable

>  <fragmenstein_mode>  (145) 
expansion

>  <fragmenstein_error>  (145) 


$$$$
C2428-P190
     RDKit          3D

 49 52  0  0  0  0  0  0  0  0999 V2000
   -0.7991    2.0784   27.8498 N   0  0  0  0  0  0  0  0  0  0  0  0
   -0.8470    0.9623   28.6797 C   0  0  0  0  0  0  0  0  0  0  0  0
   -1.3328   -0.2481   28.2085 C   0  0  0  0  0  0  0  0  0  0  0  0
   -1.3988   -1.3333   29.0762 C   0  0  0  0  0  0  0  0  0  0  0  0
   -0.9710   -1.1618   30.3891 C   0  0  0  0  0  0  0  0  0  0  0  0
   -0.9449   -2.5097   31.5029 S   0  0  0  0  0  0  0  0  0  0  0  0
   -2.1826   -3.2466   31.3697 O   0  0  0  0  0  0  0  0  0  0  0  0
   -0.4516   -2.0688   32.7881 O   0  0  0  0  0  0  0  0  0  0  0  0
    0.2277   -3.4341   30.7674 N   0  0  0  0  0  0  0  0  0  0  0  0
    1.6517   -3.2648   31.0795 C   0  0  0  0  0  0  0  0  0  0  0  0
    2.3397   -4.6253   30.8709 C   0  0  0  0  0  0  0  0  0  0  0  0
    1.4498   -5.7230   31.4074 C   0  0  0  0  0  0  0  0  0  0  0  0
    1.3303   -5.8353   32.8535 C   0  0  0  0  0  0  0  0  0  0  0  0
    0.3247   -6.5329   33.4158 C   0  0  0  0  0  0  0  0  0  0  0  0
    0.0785   -6.6638   35.1343 S   0  0  0  0  0  0  0  0  0  0  0  0
    0.5598   -5.0335   35.8148 C   0  0  0  0  0  0  0  0  0  0  0  0
    2.0474   -4.7655   35.7695 C   0  0  0  0  0  0  0  0  0  0  0  0
    2.5237   -3.5506   35.2582 C   0  0  0  0  0  0  0  0  0  0  0  0
    3.8886   -3.3987   35.0687 C   0  0  0  0  0  0  0  0  0  0  0  0
    4.7966   -4.3528   35.3621 N   0  0  0  0  0  0  0  0  0  0  0  0
    4.3287   -5.4832   35.9319 C   0  0  0  0  0  0  0  0  0  0  0  0
    2.9852   -5.7277   36.1653 C   0  0  0  0  0  0  0  0  0  0  0  0
   -0.4996   -7.2566   32.5393 N   0  0  0  0  0  0  0  0  0  0  0  0
   -1.5363   -8.1164   32.7527 C   0  0  0  0  0  0  0  0  0  0  0  0
   -1.9943   -8.5770   31.6101 N   0  0  0  0  0  0  0  0  0  0  0  0
   -1.2511   -8.0327   30.6022 N   0  0  0  0  0  0  0  0  0  0  0  0
   -0.3503   -7.2598   31.1589 C   0  0  0  0  0  0  0  0  0  0  0  0
    0.6533   -6.4451   30.5977 C   0  0  0  0  0  0  0  0  0  0  0  0
   -0.4797    0.0636   30.7787 C   0  0  0  0  0  0  0  0  0  0  0  0
   -0.3991    1.1218   29.9393 N   0  0  0  0  0  0  0  0  0  0  0  0
   -1.7226    2.2897   27.4802 H   0  0  0  0  0  0  0  0  0  0  0  0
   -0.4628    2.8585   28.4117 H   0  0  0  0  0  0  0  0  0  0  0  0
   -1.6698   -0.3489   27.1810 H   0  0  0  0  0  0  0  0  0  0  0  0
   -1.7865   -2.2828   28.7152 H   0  0  0  0  0  0  0  0  0  0  0  0
    0.0033   -3.6829   29.8030 H   0  0  0  0  0  0  0  0  0  0  0  0
    2.0941   -2.5118   30.4202 H   0  0  0  0  0  0  0  0  0  0  0  0
    1.7941   -2.9436   32.1155 H   0  0  0  0  0  0  0  0  0  0  0  0
    2.5111   -4.7772   29.7971 H   0  0  0  0  0  0  0  0  0  0  0  0
    3.3264   -4.6363   31.3472 H   0  0  0  0  0  0  0  0  0  0  0  0
    2.0925   -5.3210   33.4115 H   0  0  0  0  0  0  0  0  0  0  0  0
    0.2347   -4.9958   36.8602 H   0  0  0  0  0  0  0  0  0  0  0  0
    0.0024   -4.2599   35.2747 H   0  0  0  0  0  0  0  0  0  0  0  0
    1.8442   -2.7547   34.9651 H   0  0  0  0  0  0  0  0  0  0  0  0
    4.2977   -2.4810   34.6552 H   0  0  0  0  0  0  0  0  0  0  0  0
    5.0860   -6.2139   36.2026 H   0  0  0  0  0  0  0  0  0  0  0  0
    2.6823   -6.6695   36.6128 H   0  0  0  0  0  0  0  0  0  0  0  0
   -1.9082   -8.3693   33.7337 H   0  0  0  0  0  0  0  0  0  0  0  0
    0.6945   -6.3446   29.5240 H   0  0  0  0  0  0  0  0  0  0  0  0
   -0.1080    0.2492   31.7824 H   0  0  0  0  0  0  0  0  0  0  0  0
  1  2  1  0
  2  3  2  0
  3  4  1  0
  4  5  2  0
  5  6  1  0
  6  7  2  0
  6  8  2  0
  6  9  1  0
  9 10  1  0
 10 11  1  0
 11 12  1  0
 12 13  1  0
 13 14  2  0
 14 15  1  0
 15 16  1  0
 16 17  1  0
 17 18  2  0
 18 19  1  0
 19 20  2  0
 20 21  1  0
 21 22  2  0
 14 23  1  0
 23 24  1  0
 24 25  2  0
 25 26  1  0
 26 27  2  0
 27 28  1  0
  5 29  1  0
 29 30  2  0
 30  2  1  0
 28 12  2  0
 22 17  1  0
 27 23  1  0
  1 31  1  0
  1 32  1  0
  3 33  1  0
  4 34  1  0
  9 35  1  0
 10 36  1  0
 10 37  1  0
 11 38  1  0
 11 39  1  0
 13 40  1  0
 16 41  1  0
 16 42  1  0
 18 43  1  0
 19 44  1  0
 21 45  1  0
 22 46  1  0
 24 47  1  0
 28 48  1  0
 29 49  1  0
M  END
>  <Energy>  (146) 
-30.689733606948273

>  <compound_id>  (146) 
2428

>  <target_id>  (146) 
1

>  <reference_id>  (146) 
190

>  <inspiration_ids>  (146) 
[165, 190]

>  <energy_score>  (146) 
-49.628777944897195

>  <distance_score>  (146) 
0.6152639059153194

>  <path>  (146) 
/opt/xchem-fragalysis-2/maxwin/BulkDock/SCRATCH/505736/C2428-P190/C2428-P190.minimised.mol

>  <scratch_subdir>  (146) 
/opt/xchem-fragalysis-2/maxwin/BulkDock/SCRATCH/505736/C2428-P190

>  <fragmenstein_runtime>  (146) 
3.573744297027588

>  <fragmenstein_outcome>  (146) 
acceptable

>  <fragmenstein_mode>  (146) 
expansion

>  <fragmenstein_error>  (146) 


$$$$
C2429-P165
     RDKit          3D

 40 42  0  0  0  0  0  0  0  0999 V2000
   -0.2777    0.6096   29.1269 C   0  0  0  0  0  0  0  0  0  0  0  0
   -0.7718   -0.6061   28.3618 C   0  0  0  0  0  0  0  0  0  0  0  0
   -0.3833   -1.8289   29.0043 O   0  0  0  0  0  0  0  0  0  0  0  0
   -1.0973   -2.1416   30.1042 C   0  0  0  0  0  0  0  0  0  0  0  0
   -1.9605   -1.4665   30.6482 O   0  0  0  0  0  0  0  0  0  0  0  0
   -0.6525   -3.4079   30.7011 C   0  0  0  0  0  0  0  0  0  0  0  0
    0.0109   -4.4110   30.0974 C   0  0  0  0  0  0  0  0  0  0  0  0
    0.4236   -5.5499   30.9085 C   0  0  0  0  0  0  0  0  0  0  0  0
    1.5064   -5.3214   31.6841 C   0  0  0  0  0  0  0  0  0  0  0  0
    1.6340   -5.9318   32.9923 C   0  0  0  0  0  0  0  0  0  0  0  0
    0.5870   -6.5964   33.5197 C   0  0  0  0  0  0  0  0  0  0  0  0
    0.4715   -6.9799   35.2057 S   0  0  0  0  0  0  0  0  0  0  0  0
    0.7390   -5.3456   36.0104 C   0  0  0  0  0  0  0  0  0  0  0  0
    2.1745   -4.8853   35.9140 C   0  0  0  0  0  0  0  0  0  0  0  0
    2.4956   -3.6589   35.3187 C   0  0  0  0  0  0  0  0  0  0  0  0
    3.8306   -3.3676   35.0817 C   0  0  0  0  0  0  0  0  0  0  0  0
    4.8471   -4.1946   35.4050 N   0  0  0  0  0  0  0  0  0  0  0  0
    4.5243   -5.3354   36.0481 C   0  0  0  0  0  0  0  0  0  0  0  0
    3.2237   -5.7135   36.3332 C   0  0  0  0  0  0  0  0  0  0  0  0
   -0.3970   -7.0265   32.6224 N   0  0  0  0  0  0  0  0  0  0  0  0
   -1.4318   -7.9094   32.7475 C   0  0  0  0  0  0  0  0  0  0  0  0
   -1.9508   -8.1692   31.5689 N   0  0  0  0  0  0  0  0  0  0  0  0
   -1.3115   -7.3782   30.6472 N   0  0  0  0  0  0  0  0  0  0  0  0
   -0.4304   -6.6393   31.2892 C   0  0  0  0  0  0  0  0  0  0  0  0
   -0.7039    0.6592   30.1319 H   0  0  0  0  0  0  0  0  0  0  0  0
    0.8098    0.5665   29.2474 H   0  0  0  0  0  0  0  0  0  0  0  0
   -0.5357    1.5298   28.5946 H   0  0  0  0  0  0  0  0  0  0  0  0
   -1.8553   -0.5823   28.2137 H   0  0  0  0  0  0  0  0  0  0  0  0
   -0.3102   -0.6039   27.3745 H   0  0  0  0  0  0  0  0  0  0  0  0
   -0.9292   -3.4777   31.7499 H   0  0  0  0  0  0  0  0  0  0  0  0
    0.2643   -4.3862   29.0433 H   0  0  0  0  0  0  0  0  0  0  0  0
    2.1587   -4.4669   31.5048 H   0  0  0  0  0  0  0  0  0  0  0  0
    2.5269   -5.6694   33.5406 H   0  0  0  0  0  0  0  0  0  0  0  0
    0.4694   -5.4398   37.0679 H   0  0  0  0  0  0  0  0  0  0  0  0
    0.0534   -4.6170   35.5639 H   0  0  0  0  0  0  0  0  0  0  0  0
    1.7264   -2.9638   34.9974 H   0  0  0  0  0  0  0  0  0  0  0  0
    4.1247   -2.4388   34.6003 H   0  0  0  0  0  0  0  0  0  0  0  0
    5.3658   -5.9604   36.3336 H   0  0  0  0  0  0  0  0  0  0  0  0
    3.0357   -6.6587   36.8338 H   0  0  0  0  0  0  0  0  0  0  0  0
   -1.7299   -8.3503   33.6860 H   0  0  0  0  0  0  0  0  0  0  0  0
  1  2  1  0
  2  3  1  0
  3  4  1  0
  4  5  2  0
  4  6  1  0
  6  7  2  3
  7  8  1  0
  8  9  2  0
  9 10  1  0
 10 11  2  0
 11 12  1  0
 12 13  1  0
 13 14  1  0
 14 15  2  0
 15 16  1  0
 16 17  2  0
 17 18  1  0
 18 19  2  0
 11 20  1  0
 20 21  1  0
 21 22  2  0
 22 23  1  0
 23 24  2  0
 24  8  1  0
 19 14  1  0
 24 20  1  0
  1 25  1  0
  1 26  1  0
  1 27  1  0
  2 28  1  0
  2 29  1  0
  6 30  1  0
  7 31  1  0
  9 32  1  0
 10 33  1  0
 13 34  1  0
 13 35  1  0
 15 36  1  0
 16 37  1  0
 18 38  1  0
 19 39  1  0
 21 40  1  0
M  END
>  <Energy>  (147) 
71.360145970792132

>  <compound_id>  (147) 
2429

>  <target_id>  (147) 
1

>  <reference_id>  (147) 
165

>  <inspiration_ids>  (147) 
[165, 194]

>  <energy_score>  (147) 
-16.06256185722509

>  <distance_score>  (147) 
1.1523837294892378

>  <path>  (147) 
/opt/xchem-fragalysis-2/maxwin/BulkDock/SCRATCH/505736/C2429-P165/C2429-P165.minimised.mol

>  <scratch_subdir>  (147) 
/opt/xchem-fragalysis-2/maxwin/BulkDock/SCRATCH/505736/C2429-P165

>  <fragmenstein_runtime>  (147) 
2.541400194168091

>  <fragmenstein_outcome>  (147) 
too moved

>  <fragmenstein_mode>  (147) 
expansion

>  <fragmenstein_error>  (147) 


$$$$
C2429-P194
     RDKit          3D

 40 42  0  0  0  0  0  0  0  0999 V2000
   -0.5688    0.6797   29.1082 C   0  0  0  0  0  0  0  0  0  0  0  0
   -0.9567   -0.5292   28.2719 C   0  0  0  0  0  0  0  0  0  0  0  0
   -0.5466   -1.7515   28.9023 O   0  0  0  0  0  0  0  0  0  0  0  0
   -1.3212   -2.1398   29.9350 C   0  0  0  0  0  0  0  0  0  0  0  0
   -2.2840   -1.5507   30.4062 O   0  0  0  0  0  0  0  0  0  0  0  0
   -0.8164   -3.3697   30.5599 C   0  0  0  0  0  0  0  0  0  0  0  0
   -0.0723   -4.3355   29.9903 C   0  0  0  0  0  0  0  0  0  0  0  0
    0.3680   -5.4456   30.8249 C   0  0  0  0  0  0  0  0  0  0  0  0
    1.4276   -5.1729   31.6177 C   0  0  0  0  0  0  0  0  0  0  0  0
    1.5690   -5.7858   32.9238 C   0  0  0  0  0  0  0  0  0  0  0  0
    0.5480   -6.4988   33.4383 C   0  0  0  0  0  0  0  0  0  0  0  0
    0.4399   -6.9280   35.1164 S   0  0  0  0  0  0  0  0  0  0  0  0
    0.7500   -5.3292   35.9738 C   0  0  0  0  0  0  0  0  0  0  0  0
    2.1971   -4.9043   35.8977 C   0  0  0  0  0  0  0  0  0  0  0  0
    2.5486   -3.6559   35.3686 C   0  0  0  0  0  0  0  0  0  0  0  0
    3.8901   -3.3854   35.1451 C   0  0  0  0  0  0  0  0  0  0  0  0
    4.8857   -4.2529   35.4236 N   0  0  0  0  0  0  0  0  0  0  0  0
    4.5351   -5.4176   36.0067 C   0  0  0  0  0  0  0  0  0  0  0  0
    3.2255   -5.7787   36.2722 C   0  0  0  0  0  0  0  0  0  0  0  0
   -0.4137   -6.9538   32.5276 N   0  0  0  0  0  0  0  0  0  0  0  0
   -1.4199   -7.8687   32.6401 C   0  0  0  0  0  0  0  0  0  0  0  0
   -1.9184   -8.1465   31.4577 N   0  0  0  0  0  0  0  0  0  0  0  0
   -1.3101   -7.3214   30.5456 N   0  0  0  0  0  0  0  0  0  0  0  0
   -0.4527   -6.5619   31.1961 C   0  0  0  0  0  0  0  0  0  0  0  0
   -1.0837    0.6866   30.0729 H   0  0  0  0  0  0  0  0  0  0  0  0
    0.5052    0.6687   29.3208 H   0  0  0  0  0  0  0  0  0  0  0  0
   -0.8144    1.6062   28.5811 H   0  0  0  0  0  0  0  0  0  0  0  0
   -2.0299   -0.5483   28.0547 H   0  0  0  0  0  0  0  0  0  0  0  0
   -0.4333   -0.4715   27.3172 H   0  0  0  0  0  0  0  0  0  0  0  0
   -1.1280   -3.4495   31.5981 H   0  0  0  0  0  0  0  0  0  0  0  0
    0.2135   -4.3081   28.9442 H   0  0  0  0  0  0  0  0  0  0  0  0
    2.0495   -4.2949   31.4444 H   0  0  0  0  0  0  0  0  0  0  0  0
    2.4513   -5.4966   33.4743 H   0  0  0  0  0  0  0  0  0  0  0  0
    0.4743   -5.4508   37.0271 H   0  0  0  0  0  0  0  0  0  0  0  0
    0.0853   -4.5684   35.5499 H   0  0  0  0  0  0  0  0  0  0  0  0
    1.7971   -2.9253   35.0864 H   0  0  0  0  0  0  0  0  0  0  0  0
    4.2072   -2.4401   34.7131 H   0  0  0  0  0  0  0  0  0  0  0  0
    5.3610   -6.0768   36.2594 H   0  0  0  0  0  0  0  0  0  0  0  0
    3.0165   -6.7437   36.7247 H   0  0  0  0  0  0  0  0  0  0  0  0
   -1.7185   -8.3106   33.5761 H   0  0  0  0  0  0  0  0  0  0  0  0
  1  2  1  0
  2  3  1  0
  3  4  1  0
  4  5  2  0
  4  6  1  0
  6  7  2  3
  7  8  1  0
  8  9  2  0
  9 10  1  0
 10 11  2  0
 11 12  1  0
 12 13  1  0
 13 14  1  0
 14 15  2  0
 15 16  1  0
 16 17  2  0
 17 18  1  0
 18 19  2  0
 11 20  1  0
 20 21  1  0
 21 22  2  0
 22 23  1  0
 23 24  2  0
 24  8  1  0
 19 14  1  0
 24 20  1  0
  1 25  1  0
  1 26  1  0
  1 27  1  0
  2 28  1  0
  2 29  1  0
  6 30  1  0
  7 31  1  0
  9 32  1  0
 10 33  1  0
 13 34  1  0
 13 35  1  0
 15 36  1  0
 16 37  1  0
 18 38  1  0
 19 39  1  0
 21 40  1  0
M  END
>  <Energy>  (148) 
70.692192002882976

>  <compound_id>  (148) 
2429

>  <target_id>  (148) 
1

>  <reference_id>  (148) 
194

>  <inspiration_ids>  (148) 
[165, 194]

>  <energy_score>  (148) 
-16.73051582513537

>  <distance_score>  (148) 
1.1959467574980303

>  <path>  (148) 
/opt/xchem-fragalysis-2/maxwin/BulkDock/SCRATCH/505736/C2429-P194/C2429-P194.minimised.mol

>  <scratch_subdir>  (148) 
/opt/xchem-fragalysis-2/maxwin/BulkDock/SCRATCH/505736/C2429-P194

>  <fragmenstein_runtime>  (148) 
2.4022438526153564

>  <fragmenstein_outcome>  (148) 
too moved

>  <fragmenstein_mode>  (148) 
expansion

>  <fragmenstein_error>  (148) 


$$$$
C2429-P165
     RDKit          3D

 40 42  0  0  0  0  0  0  0  0999 V2000
   -1.0539    0.4295   28.1897 C   0  0  0  0  0  0  0  0  0  0  0  0
    0.1872   -0.3421   28.5944 C   0  0  0  0  0  0  0  0  0  0  0  0
   -0.0680   -1.7103   28.9578 O   0  0  0  0  0  0  0  0  0  0  0  0
   -0.7094   -1.8952   30.1287 C   0  0  0  0  0  0  0  0  0  0  0  0
   -1.2853   -1.0485   30.7991 O   0  0  0  0  0  0  0  0  0  0  0  0
   -0.5697   -3.2744   30.6322 C   0  0  0  0  0  0  0  0  0  0  0  0
    0.0158   -4.3283   30.0310 C   0  0  0  0  0  0  0  0  0  0  0  0
    0.3866   -5.4774   30.8617 C   0  0  0  0  0  0  0  0  0  0  0  0
    1.4695   -5.2566   31.6426 C   0  0  0  0  0  0  0  0  0  0  0  0
    1.6031   -5.8740   32.9464 C   0  0  0  0  0  0  0  0  0  0  0  0
    0.5645   -6.5539   33.4684 C   0  0  0  0  0  0  0  0  0  0  0  0
    0.4584   -6.9652   35.1488 S   0  0  0  0  0  0  0  0  0  0  0  0
    0.7364   -5.3471   35.9818 C   0  0  0  0  0  0  0  0  0  0  0  0
    2.1752   -4.8954   35.8944 C   0  0  0  0  0  0  0  0  0  0  0  0
    2.5047   -3.6592   35.3246 C   0  0  0  0  0  0  0  0  0  0  0  0
    3.8417   -3.3715   35.0951 C   0  0  0  0  0  0  0  0  0  0  0  0
    4.8526   -4.2115   35.4026 N   0  0  0  0  0  0  0  0  0  0  0  0
    4.5219   -5.3628   36.0224 C   0  0  0  0  0  0  0  0  0  0  0  0
    3.2186   -5.7385   36.2980 C   0  0  0  0  0  0  0  0  0  0  0  0
   -0.4148   -6.9836   32.5660 N   0  0  0  0  0  0  0  0  0  0  0  0
   -1.4277   -7.8932   32.6819 C   0  0  0  0  0  0  0  0  0  0  0  0
   -1.9377   -8.1539   31.5002 N   0  0  0  0  0  0  0  0  0  0  0  0
   -1.3121   -7.3420   30.5862 N   0  0  0  0  0  0  0  0  0  0  0  0
   -0.4577   -6.5782   31.2360 C   0  0  0  0  0  0  0  0  0  0  0  0
   -0.7803    1.3955   27.7550 H   0  0  0  0  0  0  0  0  0  0  0  0
   -1.7030    0.6231   29.0464 H   0  0  0  0  0  0  0  0  0  0  0  0
   -1.6372   -0.1363   27.4569 H   0  0  0  0  0  0  0  0  0  0  0  0
    0.7082    0.1625   29.4170 H   0  0  0  0  0  0  0  0  0  0  0  0
    0.8851   -0.3716   27.7519 H   0  0  0  0  0  0  0  0  0  0  0  0
   -0.8932   -3.3463   31.6681 H   0  0  0  0  0  0  0  0  0  0  0  0
    0.3661   -4.2890   29.0051 H   0  0  0  0  0  0  0  0  0  0  0  0
    2.1293   -4.4070   31.4662 H   0  0  0  0  0  0  0  0  0  0  0  0
    2.4951   -5.6097   33.4952 H   0  0  0  0  0  0  0  0  0  0  0  0
    0.4656   -5.4579   37.0374 H   0  0  0  0  0  0  0  0  0  0  0  0
    0.0561   -4.6061   35.5478 H   0  0  0  0  0  0  0  0  0  0  0  0
    1.7403   -2.9522   35.0176 H   0  0  0  0  0  0  0  0  0  0  0  0
    4.1423   -2.4347   34.6337 H   0  0  0  0  0  0  0  0  0  0  0  0
    5.3592   -5.9983   36.2968 H   0  0  0  0  0  0  0  0  0  0  0  0
    3.0241   -6.6919   36.7800 H   0  0  0  0  0  0  0  0  0  0  0  0
   -1.7138   -8.3539   33.6148 H   0  0  0  0  0  0  0  0  0  0  0  0
  1  2  1  0
  2  3  1  0
  3  4  1  0
  4  5  2  0
  4  6  1  0
  6  7  2  3
  7  8  1  0
  8  9  2  0
  9 10  1  0
 10 11  2  0
 11 12  1  0
 12 13  1  0
 13 14  1  0
 14 15  2  0
 15 16  1  0
 16 17  2  0
 17 18  1  0
 18 19  2  0
 11 20  1  0
 20 21  1  0
 21 22  2  0
 22 23  1  0
 23 24  2  0
 24  8  1  0
 19 14  1  0
 24 20  1  0
  1 25  1  0
  1 26  1  0
  1 27  1  0
  2 28  1  0
  2 29  1  0
  6 30  1  0
  7 31  1  0
  9 32  1  0
 10 33  1  0
 13 34  1  0
 13 35  1  0
 15 36  1  0
 16 37  1  0
 18 38  1  0
 19 39  1  0
 21 40  1  0
M  END
>  <Energy>  (149) 
74.236627190156966

>  <compound_id>  (149) 
2429

>  <target_id>  (149) 
1

>  <reference_id>  (149) 
165

>  <inspiration_ids>  (149) 
[165, 195]

>  <energy_score>  (149) 
-13.18608063786155

>  <distance_score>  (149) 
1.0731304746369927

>  <path>  (149) 
/opt/xchem-fragalysis-2/maxwin/BulkDock/SCRATCH/505736/C2429-P165/C2429-P165.minimised.mol

>  <scratch_subdir>  (149) 
/opt/xchem-fragalysis-2/maxwin/BulkDock/SCRATCH/505736/C2429-P165

>  <fragmenstein_runtime>  (149) 
2.333446741104126

>  <fragmenstein_outcome>  (149) 
too moved

>  <fragmenstein_mode>  (149) 
expansion

>  <fragmenstein_error>  (149) 


$$$$
C2429-P195
     RDKit          3D

 40 42  0  0  0  0  0  0  0  0999 V2000
   -1.2515    0.4347   28.1671 C   0  0  0  0  0  0  0  0  0  0  0  0
    0.0182   -0.2976   28.5556 C   0  0  0  0  0  0  0  0  0  0  0  0
   -0.1893   -1.6739   28.9186 O   0  0  0  0  0  0  0  0  0  0  0  0
   -0.8112   -1.8797   30.0963 C   0  0  0  0  0  0  0  0  0  0  0  0
   -1.4008   -1.0509   30.7772 O   0  0  0  0  0  0  0  0  0  0  0  0
   -0.6300   -3.2560   30.5936 C   0  0  0  0  0  0  0  0  0  0  0  0
   -0.0172   -4.2921   29.9890 C   0  0  0  0  0  0  0  0  0  0  0  0
    0.3830   -5.4321   30.8179 C   0  0  0  0  0  0  0  0  0  0  0  0
    1.4555   -5.1852   31.6056 C   0  0  0  0  0  0  0  0  0  0  0  0
    1.5946   -5.7975   32.9119 C   0  0  0  0  0  0  0  0  0  0  0  0
    0.5673   -6.4984   33.4292 C   0  0  0  0  0  0  0  0  0  0  0  0
    0.4590   -6.9206   35.1071 S   0  0  0  0  0  0  0  0  0  0  0  0
    0.7529   -5.3175   35.9592 C   0  0  0  0  0  0  0  0  0  0  0  0
    2.1976   -4.8836   35.8842 C   0  0  0  0  0  0  0  0  0  0  0  0
    2.5443   -3.6403   35.3407 C   0  0  0  0  0  0  0  0  0  0  0  0
    3.8853   -3.3657   35.1193 C   0  0  0  0  0  0  0  0  0  0  0  0
    4.8845   -4.2248   35.4120 N   0  0  0  0  0  0  0  0  0  0  0  0
    4.5376   -5.3835   36.0086 C   0  0  0  0  0  0  0  0  0  0  0  0
    3.2290   -5.7478   36.2737 C   0  0  0  0  0  0  0  0  0  0  0  0
   -0.3972   -6.9476   32.5201 N   0  0  0  0  0  0  0  0  0  0  0  0
   -1.3985   -7.8686   32.6318 C   0  0  0  0  0  0  0  0  0  0  0  0
   -1.8897   -8.1502   31.4474 N   0  0  0  0  0  0  0  0  0  0  0  0
   -1.2670   -7.3368   30.5344 N   0  0  0  0  0  0  0  0  0  0  0  0
   -0.4375   -6.5502   31.1884 C   0  0  0  0  0  0  0  0  0  0  0  0
   -1.0143    1.4129   27.7385 H   0  0  0  0  0  0  0  0  0  0  0  0
   -1.9034    0.5983   29.0283 H   0  0  0  0  0  0  0  0  0  0  0  0
   -1.8216   -0.1443   27.4339 H   0  0  0  0  0  0  0  0  0  0  0  0
    0.5323    0.2217   29.3734 H   0  0  0  0  0  0  0  0  0  0  0  0
    0.7067   -0.3030   27.7048 H   0  0  0  0  0  0  0  0  0  0  0  0
   -0.9476   -3.3391   31.6306 H   0  0  0  0  0  0  0  0  0  0  0  0
    0.3290   -4.2439   28.9620 H   0  0  0  0  0  0  0  0  0  0  0  0
    2.0949   -4.3194   31.4328 H   0  0  0  0  0  0  0  0  0  0  0  0
    2.4788   -5.5147   33.4632 H   0  0  0  0  0  0  0  0  0  0  0  0
    0.4756   -5.4367   37.0122 H   0  0  0  0  0  0  0  0  0  0  0  0
    0.0844   -4.5627   35.5306 H   0  0  0  0  0  0  0  0  0  0  0  0
    1.7898   -2.9173   35.0466 H   0  0  0  0  0  0  0  0  0  0  0  0
    4.1990   -2.4238   34.6772 H   0  0  0  0  0  0  0  0  0  0  0  0
    5.3661   -6.0347   36.2729 H   0  0  0  0  0  0  0  0  0  0  0  0
    3.0211   -6.7076   36.7372 H   0  0  0  0  0  0  0  0  0  0  0  0
   -1.6935   -8.3163   33.5668 H   0  0  0  0  0  0  0  0  0  0  0  0
  1  2  1  0
  2  3  1  0
  3  4  1  0
  4  5  2  0
  4  6  1  0
  6  7  2  3
  7  8  1  0
  8  9  2  0
  9 10  1  0
 10 11  2  0
 11 12  1  0
 12 13  1  0
 13 14  1  0
 14 15  2  0
 15 16  1  0
 16 17  2  0
 17 18  1  0
 18 19  2  0
 11 20  1  0
 20 21  1  0
 21 22  2  0
 22 23  1  0
 23 24  2  0
 24  8  1  0
 19 14  1  0
 24 20  1  0
  1 25  1  0
  1 26  1  0
  1 27  1  0
  2 28  1  0
  2 29  1  0
  6 30  1  0
  7 31  1  0
  9 32  1  0
 10 33  1  0
 13 34  1  0
 13 35  1  0
 15 36  1  0
 16 37  1  0
 18 38  1  0
 19 39  1  0
 21 40  1  0
M  END
>  <Energy>  (150) 
74.502159162507311

>  <compound_id>  (150) 
2429

>  <target_id>  (150) 
1

>  <reference_id>  (150) 
195

>  <inspiration_ids>  (150) 
[165, 195]

>  <energy_score>  (150) 
-12.920548665511461

>  <distance_score>  (150) 
1.0706940853342055

>  <path>  (150) 
/opt/xchem-fragalysis-2/maxwin/BulkDock/SCRATCH/505736/C2429-P195/C2429-P195.minimised.mol

>  <scratch_subdir>  (150) 
/opt/xchem-fragalysis-2/maxwin/BulkDock/SCRATCH/505736/C2429-P195

>  <fragmenstein_runtime>  (150) 
2.4131128787994385

>  <fragmenstein_outcome>  (150) 
too moved

>  <fragmenstein_mode>  (150) 
expansion

>  <fragmenstein_error>  (150) 


$$$$
C2430-P165
     RDKit          3D

 48 51  0  0  0  0  0  0  0  0999 V2000
   -1.5253   -1.2462   32.7607 O   0  0  0  0  0  0  0  0  0  0  0  0
   -1.2326   -2.0021   31.5644 S   0  0  0  0  0  0  0  0  0  0  0  0
   -2.0228   -3.1453   31.1885 O   0  0  0  0  0  0  0  0  0  0  0  0
    0.3576   -2.4536   31.7470 N   0  0  0  0  0  0  0  0  0  0  0  0
    0.9441   -3.5409   30.9738 C   0  0  0  0  0  0  0  0  0  0  0  0
    0.5095   -4.8669   31.5189 C   0  0  0  0  0  0  0  0  0  0  0  0
    0.4958   -5.0647   32.9654 C   0  0  0  0  0  0  0  0  0  0  0  0
   -0.1337   -6.1182   33.5166 C   0  0  0  0  0  0  0  0  0  0  0  0
   -0.2532   -6.4012   35.2294 S   0  0  0  0  0  0  0  0  0  0  0  0
    0.6597   -5.0552   36.0485 C   0  0  0  0  0  0  0  0  0  0  0  0
    2.1430   -5.0143   35.7491 C   0  0  0  0  0  0  0  0  0  0  0  0
    2.7596   -3.8057   35.3952 C   0  0  0  0  0  0  0  0  0  0  0  0
    4.1035   -3.8125   35.0551 C   0  0  0  0  0  0  0  0  0  0  0  0
    4.8708   -4.9209   35.0666 N   0  0  0  0  0  0  0  0  0  0  0  0
    4.2804   -6.0627   35.4767 C   0  0  0  0  0  0  0  0  0  0  0  0
    2.9426   -6.1588   35.8264 C   0  0  0  0  0  0  0  0  0  0  0  0
   -0.7145   -7.0346   32.6251 N   0  0  0  0  0  0  0  0  0  0  0  0
   -1.5092   -8.1250   32.8180 C   0  0  0  0  0  0  0  0  0  0  0  0
   -1.7836   -8.7056   31.6717 N   0  0  0  0  0  0  0  0  0  0  0  0
   -1.2036   -7.9714   30.6768 N   0  0  0  0  0  0  0  0  0  0  0  0
   -0.5942   -6.9583   31.2456 C   0  0  0  0  0  0  0  0  0  0  0  0
    0.0342   -5.8205   30.6998 C   0  0  0  0  0  0  0  0  0  0  0  0
   -1.0740   -0.9237   30.3103 N   0  0  0  0  0  0  0  0  0  0  0  0
   -0.9821   -1.4002   28.9143 C   0  0  0  0  0  0  0  0  0  0  0  0
   -1.1856   -0.2536   27.9077 C   0  0  0  0  0  0  0  0  0  0  0  0
   -0.9470    1.0619   28.4205 O   0  0  0  0  0  0  0  0  0  0  0  0
    0.1316    1.0503   29.3406 C   0  0  0  0  0  0  0  0  0  0  0  0
   -0.2498    0.2783   30.6000 C   0  0  0  0  0  0  0  0  0  0  0  0
    0.6177   -2.3902   32.7264 H   0  0  0  0  0  0  0  0  0  0  0  0
    2.0345   -3.4617   31.0592 H   0  0  0  0  0  0  0  0  0  0  0  0
    0.7103   -3.4395   29.9124 H   0  0  0  0  0  0  0  0  0  0  0  0
    0.9700   -4.2982   33.5515 H   0  0  0  0  0  0  0  0  0  0  0  0
    0.5369   -5.1800   37.1304 H   0  0  0  0  0  0  0  0  0  0  0  0
    0.1798   -4.1048   35.7888 H   0  0  0  0  0  0  0  0  0  0  0  0
    2.2050   -2.8727   35.3691 H   0  0  0  0  0  0  0  0  0  0  0  0
    4.6136   -2.8991   34.7619 H   0  0  0  0  0  0  0  0  0  0  0  0
    4.9333   -6.9299   35.5189 H   0  0  0  0  0  0  0  0  0  0  0  0
    2.5362   -7.1137   36.1455 H   0  0  0  0  0  0  0  0  0  0  0  0
   -1.8624   -8.4302   33.7894 H   0  0  0  0  0  0  0  0  0  0  0  0
   -0.0069   -5.6734   29.6304 H   0  0  0  0  0  0  0  0  0  0  0  0
   -1.7042   -2.1947   28.7142 H   0  0  0  0  0  0  0  0  0  0  0  0
    0.0175   -1.8131   28.7470 H   0  0  0  0  0  0  0  0  0  0  0  0
   -2.1893   -0.2734   27.4904 H   0  0  0  0  0  0  0  0  0  0  0  0
   -0.5006   -0.3899   27.0739 H   0  0  0  0  0  0  0  0  0  0  0  0
    0.3845    2.0840   29.5975 H   0  0  0  0  0  0  0  0  0  0  0  0
    1.0167    0.6132   28.8613 H   0  0  0  0  0  0  0  0  0  0  0  0
   -0.8373    0.9179   31.2608 H   0  0  0  0  0  0  0  0  0  0  0  0
    0.6705    0.0219   31.1344 H   0  0  0  0  0  0  0  0  0  0  0  0
  1  2  2  0
  2  3  2  0
  2  4  1  0
  4  5  1  0
  5  6  1  0
  6  7  1  0
  7  8  2  0
  8  9  1  0
  9 10  1  0
 10 11  1  0
 11 12  2  0
 12 13  1  0
 13 14  2  0
 14 15  1  0
 15 16  2  0
  8 17  1  0
 17 18  1  0
 18 19  2  0
 19 20  1  0
 20 21  2  0
 21 22  1  0
  2 23  1  0
 23 24  1  0
 24 25  1  0
 25 26  1  0
 26 27  1  0
 27 28  1  0
 22  6  2  0
 28 23  1  0
 16 11  1  0
 21 17  1  0
  4 29  1  0
  5 30  1  0
  5 31  1  0
  7 32  1  0
 10 33  1  0
 10 34  1  0
 12 35  1  0
 13 36  1  0
 15 37  1  0
 16 38  1  0
 18 39  1  0
 22 40  1  0
 24 41  1  0
 24 42  1  0
 25 43  1  0
 25 44  1  0
 27 45  1  0
 27 46  1  0
 28 47  1  0
 28 48  1  0
M  END
>  <Energy>  (151) 
-76.99054712654366

>  <compound_id>  (151) 
2430

>  <target_id>  (151) 
1

>  <reference_id>  (151) 
165

>  <inspiration_ids>  (151) 
[165, 196]

>  <energy_score>  (151) 
-52.23153445373447

>  <distance_score>  (151) 
0.5553130150939746

>  <path>  (151) 
/opt/xchem-fragalysis-2/maxwin/BulkDock/SCRATCH/505736/C2430-P165/C2430-P165.minimised.mol

>  <scratch_subdir>  (151) 
/opt/xchem-fragalysis-2/maxwin/BulkDock/SCRATCH/505736/C2430-P165

>  <fragmenstein_runtime>  (151) 
3.663142204284668

>  <fragmenstein_outcome>  (151) 
acceptable

>  <fragmenstein_mode>  (151) 
expansion

>  <fragmenstein_error>  (151) 


$$$$
C2430-P196
     RDKit          3D

 48 51  0  0  0  0  0  0  0  0999 V2000
   -1.6836   -1.2146   32.5362 O   0  0  0  0  0  0  0  0  0  0  0  0
   -1.3193   -2.1546   31.5010 S   0  0  0  0  0  0  0  0  0  0  0  0
   -1.9986   -3.4198   31.3778 O   0  0  0  0  0  0  0  0  0  0  0  0
    0.3159   -2.3985   31.7049 N   0  0  0  0  0  0  0  0  0  0  0  0
    1.0379   -3.4826   31.0330 C   0  0  0  0  0  0  0  0  0  0  0  0
    0.5823   -4.8204   31.5249 C   0  0  0  0  0  0  0  0  0  0  0  0
    0.5053   -5.0216   32.9679 C   0  0  0  0  0  0  0  0  0  0  0  0
   -0.1250   -6.0897   33.4866 C   0  0  0  0  0  0  0  0  0  0  0  0
   -0.2968   -6.3854   35.1930 S   0  0  0  0  0  0  0  0  0  0  0  0
    0.6335   -5.0722   36.0471 C   0  0  0  0  0  0  0  0  0  0  0  0
    2.1189   -5.0466   35.7571 C   0  0  0  0  0  0  0  0  0  0  0  0
    2.7517   -3.8460   35.4032 C   0  0  0  0  0  0  0  0  0  0  0  0
    4.0977   -3.8685   35.0724 C   0  0  0  0  0  0  0  0  0  0  0  0
    4.8527   -4.9849   35.0959 N   0  0  0  0  0  0  0  0  0  0  0  0
    4.2468   -6.1184   35.5065 C   0  0  0  0  0  0  0  0  0  0  0  0
    2.9049   -6.1995   35.8442 C   0  0  0  0  0  0  0  0  0  0  0  0
   -0.6663   -7.0021   32.5663 N   0  0  0  0  0  0  0  0  0  0  0  0
   -1.4590   -8.0990   32.7241 C   0  0  0  0  0  0  0  0  0  0  0  0
   -1.6978   -8.6704   31.5655 N   0  0  0  0  0  0  0  0  0  0  0  0
   -1.0924   -7.9234   30.5949 N   0  0  0  0  0  0  0  0  0  0  0  0
   -0.5027   -6.9128   31.1911 C   0  0  0  0  0  0  0  0  0  0  0  0
    0.1480   -5.7704   30.6767 C   0  0  0  0  0  0  0  0  0  0  0  0
   -1.3254   -1.3654   30.0528 N   0  0  0  0  0  0  0  0  0  0  0  0
   -1.0204   -2.0574   28.7921 C   0  0  0  0  0  0  0  0  0  0  0  0
   -1.6586   -1.3159   27.6163 C   0  0  0  0  0  0  0  0  0  0  0  0
   -1.6043    0.1122   27.7010 O   0  0  0  0  0  0  0  0  0  0  0  0
   -0.6484    0.5795   28.6503 C   0  0  0  0  0  0  0  0  0  0  0  0
   -0.9928    0.0732   30.0496 C   0  0  0  0  0  0  0  0  0  0  0  0
    0.5442   -2.2710   32.6872 H   0  0  0  0  0  0  0  0  0  0  0  0
    2.1030   -3.3650   31.2692 H   0  0  0  0  0  0  0  0  0  0  0  0
    0.9643   -3.3986   29.9493 H   0  0  0  0  0  0  0  0  0  0  0  0
    0.9297   -4.2412   33.5750 H   0  0  0  0  0  0  0  0  0  0  0  0
    0.5019   -5.2189   37.1252 H   0  0  0  0  0  0  0  0  0  0  0  0
    0.1695   -4.1088   35.8071 H   0  0  0  0  0  0  0  0  0  0  0  0
    2.2081   -2.9070   35.3691 H   0  0  0  0  0  0  0  0  0  0  0  0
    4.6196   -2.9622   34.7778 H   0  0  0  0  0  0  0  0  0  0  0  0
    4.8905   -6.9920   35.5584 H   0  0  0  0  0  0  0  0  0  0  0  0
    2.4847   -7.1484   36.1636 H   0  0  0  0  0  0  0  0  0  0  0  0
   -1.8392   -8.4131   33.6820 H   0  0  0  0  0  0  0  0  0  0  0  0
    0.1612   -5.6246   29.6051 H   0  0  0  0  0  0  0  0  0  0  0  0
   -1.3489   -3.0983   28.8130 H   0  0  0  0  0  0  0  0  0  0  0  0
    0.0641   -2.0540   28.6415 H   0  0  0  0  0  0  0  0  0  0  0  0
   -2.7101   -1.5851   27.5420 H   0  0  0  0  0  0  0  0  0  0  0  0
   -1.1851   -1.6233   26.6781 H   0  0  0  0  0  0  0  0  0  0  0  0
   -0.6628    1.6733   28.6435 H   0  0  0  0  0  0  0  0  0  0  0  0
    0.3544    0.2638   28.3391 H   0  0  0  0  0  0  0  0  0  0  0  0
   -1.8958    0.5804   30.3941 H   0  0  0  0  0  0  0  0  0  0  0  0
   -0.1699    0.3010   30.7339 H   0  0  0  0  0  0  0  0  0  0  0  0
  1  2  2  0
  2  3  2  0
  2  4  1  0
  4  5  1  0
  5  6  1  0
  6  7  1  0
  7  8  2  0
  8  9  1  0
  9 10  1  0
 10 11  1  0
 11 12  2  0
 12 13  1  0
 13 14  2  0
 14 15  1  0
 15 16  2  0
  8 17  1  0
 17 18  1  0
 18 19  2  0
 19 20  1  0
 20 21  2  0
 21 22  1  0
  2 23  1  0
 23 24  1  0
 24 25  1  0
 25 26  1  0
 26 27  1  0
 27 28  1  0
 22  6  2  0
 28 23  1  0
 16 11  1  0
 21 17  1  0
  4 29  1  0
  5 30  1  0
  5 31  1  0
  7 32  1  0
 10 33  1  0
 10 34  1  0
 12 35  1  0
 13 36  1  0
 15 37  1  0
 16 38  1  0
 18 39  1  0
 22 40  1  0
 24 41  1  0
 24 42  1  0
 25 43  1  0
 25 44  1  0
 27 45  1  0
 27 46  1  0
 28 47  1  0
 28 48  1  0
M  END
>  <Energy>  (152) 
-78.86971412767889

>  <compound_id>  (152) 
2430

>  <target_id>  (152) 
1

>  <reference_id>  (152) 
196

>  <inspiration_ids>  (152) 
[165, 196]

>  <energy_score>  (152) 
-54.110701454868405

>  <distance_score>  (152) 
0.5711651741938828

>  <path>  (152) 
/opt/xchem-fragalysis-2/maxwin/BulkDock/SCRATCH/505736/C2430-P196/C2430-P196.minimised.mol

>  <scratch_subdir>  (152) 
/opt/xchem-fragalysis-2/maxwin/BulkDock/SCRATCH/505736/C2430-P196

>  <fragmenstein_runtime>  (152) 
4.4771270751953125

>  <fragmenstein_outcome>  (152) 
acceptable

>  <fragmenstein_mode>  (152) 
expansion

>  <fragmenstein_error>  (152) 


$$$$
C1639-P165
     RDKit          3D

 55 60  0  0  0  0  0  0  0  0999 V2000
   -1.2358   -1.2989   28.7805 C   0  0  0  0  0  0  0  0  0  0  0  0
   -1.1537   -0.7321   30.1823 C   0  0  0  0  0  0  0  0  0  0  0  0
   -0.6906   -1.8936   31.4373 S   0  0  0  0  0  0  0  0  0  0  0  0
   -0.8221   -1.2373   32.7190 O   0  0  0  0  0  0  0  0  0  0  0  0
   -1.2920   -3.2602   31.1144 N   0  0  0  0  0  0  0  0  0  0  0  0
   -0.8083   -4.4653   31.7555 C   0  0  0  0  0  0  0  0  0  0  0  0
   -0.8000   -4.6287   33.1912 C   0  0  0  0  0  0  0  0  0  0  0  0
   -0.7789   -5.8643   33.7153 C   0  0  0  0  0  0  0  0  0  0  0  0
   -0.5827   -6.1153   35.4223 S   0  0  0  0  0  0  0  0  0  0  0  0
    1.0740   -5.5078   35.5627 C   0  0  0  0  0  0  0  0  0  0  0  0
    1.3339   -4.3303   35.0921 N   0  0  0  0  0  0  0  0  0  0  0  0
    2.6396   -3.8941   35.0012 C   0  0  0  0  0  0  0  0  0  0  0  0
    2.9236   -2.7746   34.5954 O   0  0  0  0  0  0  0  0  0  0  0  0
    3.6008   -4.9134   35.3393 C   0  0  0  0  0  0  0  0  0  0  0  0
    5.2702   -4.7710   35.0994 S   0  0  0  0  0  0  0  0  0  0  0  0
    5.5308   -6.3464   35.7315 C   0  0  0  0  0  0  0  0  0  0  0  0
    4.3572   -6.9645   36.1150 C   0  0  0  0  0  0  0  0  0  0  0  0
    3.2527   -6.1311   35.8676 C   0  0  0  0  0  0  0  0  0  0  0  0
    1.9572   -6.4215   36.0705 N   0  0  0  0  0  0  0  0  0  0  0  0
   -0.8746   -6.9217   32.8165 N   0  0  0  0  0  0  0  0  0  0  0  0
   -1.3489   -8.1827   32.9642 C   0  0  0  0  0  0  0  0  0  0  0  0
   -1.3641   -8.8096   31.8098 N   0  0  0  0  0  0  0  0  0  0  0  0
   -0.9038   -7.9445   30.8542 N   0  0  0  0  0  0  0  0  0  0  0  0
   -0.6717   -6.7991   31.4537 C   0  0  0  0  0  0  0  0  0  0  0  0
   -0.5032   -5.4946   30.9414 C   0  0  0  0  0  0  0  0  0  0  0  0
    0.9700   -2.1828   31.3438 N   0  0  0  0  0  0  0  0  0  0  0  0
    1.5788   -2.7063   30.1387 C   0  0  0  0  0  0  0  0  0  0  0  0
    2.9786   -3.2563   30.3176 C   0  0  0  0  0  0  0  0  0  0  0  0
    3.8794   -2.7357   31.2757 C   0  0  0  0  0  0  0  0  0  0  0  0
    5.1950   -3.2061   31.3634 C   0  0  0  0  0  0  0  0  0  0  0  0
    5.5919   -4.1761   30.4708 C   0  0  0  0  0  0  0  0  0  0  0  0
    4.7323   -4.6799   29.5251 C   0  0  0  0  0  0  0  0  0  0  0  0
    3.4276   -4.2468   29.4238 C   0  0  0  0  0  0  0  0  0  0  0  0
    5.3149   -5.6300   28.7450 O   0  0  0  0  0  0  0  0  0  0  0  0
    6.6578   -5.6282   29.2768 C   0  0  0  0  0  0  0  0  0  0  0  0
    6.8256   -4.7433   30.4031 O   0  0  0  0  0  0  0  0  0  0  0  0
   -1.6015   -0.5339   28.0883 H   0  0  0  0  0  0  0  0  0  0  0  0
   -1.9144   -2.1511   28.7272 H   0  0  0  0  0  0  0  0  0  0  0  0
   -0.2634   -1.6285   28.4121 H   0  0  0  0  0  0  0  0  0  0  0  0
   -2.1320   -0.3380   30.4771 H   0  0  0  0  0  0  0  0  0  0  0  0
   -0.4397    0.0966   30.2234 H   0  0  0  0  0  0  0  0  0  0  0  0
   -0.7968   -3.7337   33.8079 H   0  0  0  0  0  0  0  0  0  0  0  0
    6.5382   -6.7368   35.7956 H   0  0  0  0  0  0  0  0  0  0  0  0
    4.3251   -7.9601   36.5397 H   0  0  0  0  0  0  0  0  0  0  0  0
    1.5958   -7.3066   36.4100 H   0  0  0  0  0  0  0  0  0  0  0  0
   -1.7269   -8.5362   33.9060 H   0  0  0  0  0  0  0  0  0  0  0  0
   -0.4713   -5.3680   29.8655 H   0  0  0  0  0  0  0  0  0  0  0  0
    1.2310   -2.7088   32.1681 H   0  0  0  0  0  0  0  0  0  0  0  0
    0.9610   -3.4821   29.6805 H   0  0  0  0  0  0  0  0  0  0  0  0
    1.6636   -1.8918   29.4107 H   0  0  0  0  0  0  0  0  0  0  0  0
    3.5650   -1.9447   31.9573 H   0  0  0  0  0  0  0  0  0  0  0  0
    5.8811   -2.8065   32.1024 H   0  0  0  0  0  0  0  0  0  0  0  0
    2.7782   -4.6522   28.6547 H   0  0  0  0  0  0  0  0  0  0  0  0
    7.3496   -5.3235   28.4827 H   0  0  0  0  0  0  0  0  0  0  0  0
    6.9103   -6.6472   29.5908 H   0  0  0  0  0  0  0  0  0  0  0  0
  1  2  1  0
  2  3  1  0
  3  4  2  0
  3  5  2  0
  5  6  1  0
  6  7  1  0
  7  8  2  0
  8  9  1  0
  9 10  1  0
 10 11  2  0
 11 12  1  0
 12 13  2  0
 12 14  1  0
 14 15  1  0
 15 16  1  0
 16 17  2  0
 17 18  1  0
 18 19  1  0
  8 20  1  0
 20 21  1  0
 21 22  2  0
 22 23  1  0
 23 24  2  0
 24 25  1  0
  3 26  1  0
 26 27  1  0
 27 28  1  0
 28 29  2  0
 29 30  1  0
 30 31  2  0
 31 32  1  0
 32 33  2  0
 32 34  1  0
 34 35  1  0
 35 36  1  0
 25  6  2  0
 33 28  1  0
 19 10  1  0
 24 20  1  0
 36 31  1  0
 18 14  2  0
  1 37  1  0
  1 38  1  0
  1 39  1  0
  2 40  1  0
  2 41  1  0
  7 42  1  0
 16 43  1  0
 17 44  1  0
 19 45  1  0
 21 46  1  0
 25 47  1  0
 26 48  1  0
 27 49  1  0
 27 50  1  0
 29 51  1  0
 30 52  1  0
 33 53  1  0
 35 54  1  0
 35 55  1  0
M  END
>  <Energy>  (153) 
-108.08190665183039

>  <compound_id>  (153) 
1639

>  <target_id>  (153) 
1

>  <reference_id>  (153) 
165

>  <inspiration_ids>  (153) 
[165, 197]

>  <energy_score>  (153) 
-78.3361224198932

>  <distance_score>  (153) 
1.304176402231372

>  <path>  (153) 
/opt/xchem-fragalysis-2/maxwin/BulkDock/SCRATCH/505736/C1639-P165/C1639-P165.minimised.mol

>  <scratch_subdir>  (153) 
/opt/xchem-fragalysis-2/maxwin/BulkDock/SCRATCH/505736/C1639-P165

>  <fragmenstein_runtime>  (153) 
6.303153991699219

>  <fragmenstein_outcome>  (153) 
too moved

>  <fragmenstein_mode>  (153) 
expansion

>  <fragmenstein_error>  (153) 


$$$$
C1639-P197
     RDKit          3D

 55 60  0  0  0  0  0  0  0  0999 V2000
   -1.3742   -1.3006   28.7676 C   0  0  0  0  0  0  0  0  0  0  0  0
   -1.2012   -0.7467   30.1670 C   0  0  0  0  0  0  0  0  0  0  0  0
   -0.6758   -1.9212   31.3853 S   0  0  0  0  0  0  0  0  0  0  0  0
   -0.7071   -1.2640   32.6731 O   0  0  0  0  0  0  0  0  0  0  0  0
   -1.3302   -3.2737   31.1025 N   0  0  0  0  0  0  0  0  0  0  0  0
   -0.8351   -4.4776   31.7372 C   0  0  0  0  0  0  0  0  0  0  0  0
   -0.7853   -4.6251   33.1744 C   0  0  0  0  0  0  0  0  0  0  0  0
   -0.7272   -5.8535   33.7119 C   0  0  0  0  0  0  0  0  0  0  0  0
   -0.4787   -6.0857   35.4157 S   0  0  0  0  0  0  0  0  0  0  0  0
    1.1763   -5.4590   35.5133 C   0  0  0  0  0  0  0  0  0  0  0  0
    1.4443   -4.3539   34.8953 N   0  0  0  0  0  0  0  0  0  0  0  0
    2.7478   -3.9219   34.7743 C   0  0  0  0  0  0  0  0  0  0  0  0
    3.0321   -2.8682   34.2196 O   0  0  0  0  0  0  0  0  0  0  0  0
    3.7049   -4.8771   35.2699 C   0  0  0  0  0  0  0  0  0  0  0  0
    5.3776   -4.7574   35.0447 S   0  0  0  0  0  0  0  0  0  0  0  0
    5.6304   -6.2338   35.8854 C   0  0  0  0  0  0  0  0  0  0  0  0
    4.4518   -6.8024   36.3261 C   0  0  0  0  0  0  0  0  0  0  0  0
    3.3503   -6.0160   35.9483 C   0  0  0  0  0  0  0  0  0  0  0  0
    2.0520   -6.2884   36.1591 N   0  0  0  0  0  0  0  0  0  0  0  0
   -0.8347   -6.9211   32.8282 N   0  0  0  0  0  0  0  0  0  0  0  0
   -1.2825   -8.1871   33.0091 C   0  0  0  0  0  0  0  0  0  0  0  0
   -1.3312   -8.8281   31.8640 N   0  0  0  0  0  0  0  0  0  0  0  0
   -0.9165   -7.9699   30.8823 N   0  0  0  0  0  0  0  0  0  0  0  0
   -0.6795   -6.8131   31.4582 C   0  0  0  0  0  0  0  0  0  0  0  0
   -0.5430   -5.5129   30.9261 C   0  0  0  0  0  0  0  0  0  0  0  0
    0.9695   -2.2477   31.1727 N   0  0  0  0  0  0  0  0  0  0  0  0
    1.4642   -2.7827   29.9197 C   0  0  0  0  0  0  0  0  0  0  0  0
    2.8183   -3.4539   29.9893 C   0  0  0  0  0  0  0  0  0  0  0  0
    3.8637   -2.9545   30.7995 C   0  0  0  0  0  0  0  0  0  0  0  0
    5.1436   -3.5212   30.7573 C   0  0  0  0  0  0  0  0  0  0  0  0
    5.3556   -4.5697   29.8890 C   0  0  0  0  0  0  0  0  0  0  0  0
    4.3467   -5.0678   29.1004 C   0  0  0  0  0  0  0  0  0  0  0  0
    3.0761   -4.5355   29.1252 C   0  0  0  0  0  0  0  0  0  0  0  0
    4.7510   -6.1193   28.3382 O   0  0  0  0  0  0  0  0  0  0  0  0
    6.1539   -6.1715   28.6746 C   0  0  0  0  0  0  0  0  0  0  0  0
    6.5270   -5.2375   29.7102 O   0  0  0  0  0  0  0  0  0  0  0  0
   -0.4269   -1.6196   28.3306 H   0  0  0  0  0  0  0  0  0  0  0  0
   -1.7872   -0.5289   28.1099 H   0  0  0  0  0  0  0  0  0  0  0  0
   -2.0527   -2.1554   28.7488 H   0  0  0  0  0  0  0  0  0  0  0  0
   -2.1565   -0.3450   30.5224 H   0  0  0  0  0  0  0  0  0  0  0  0
   -0.4779    0.0750   30.1705 H   0  0  0  0  0  0  0  0  0  0  0  0
   -0.7749   -3.7229   33.7801 H   0  0  0  0  0  0  0  0  0  0  0  0
    6.6374   -6.6068   36.0206 H   0  0  0  0  0  0  0  0  0  0  0  0
    4.4151   -7.7337   36.8782 H   0  0  0  0  0  0  0  0  0  0  0  0
    1.6957   -7.1153   36.6257 H   0  0  0  0  0  0  0  0  0  0  0  0
   -1.6133   -8.5394   33.9690 H   0  0  0  0  0  0  0  0  0  0  0  0
   -0.5271   -5.3998   29.8481 H   0  0  0  0  0  0  0  0  0  0  0  0
    1.2809   -2.7860   31.9717 H   0  0  0  0  0  0  0  0  0  0  0  0
    0.7539   -3.4841   29.4753 H   0  0  0  0  0  0  0  0  0  0  0  0
    1.5709   -1.9540   29.2102 H   0  0  0  0  0  0  0  0  0  0  0  0
    3.6895   -2.1039   31.4589 H   0  0  0  0  0  0  0  0  0  0  0  0
    5.9443   -3.1360   31.3792 H   0  0  0  0  0  0  0  0  0  0  0  0
    2.3094   -4.9314   28.4657 H   0  0  0  0  0  0  0  0  0  0  0  0
    6.7410   -5.9538   27.7745 H   0  0  0  0  0  0  0  0  0  0  0  0
    6.3938   -7.1852   29.0145 H   0  0  0  0  0  0  0  0  0  0  0  0
  1  2  1  0
  2  3  1  0
  3  4  2  0
  3  5  2  0
  5  6  1  0
  6  7  1  0
  7  8  2  0
  8  9  1  0
  9 10  1  0
 10 11  2  0
 11 12  1  0
 12 13  2  0
 12 14  1  0
 14 15  1  0
 15 16  1  0
 16 17  2  0
 17 18  1  0
 18 19  1  0
  8 20  1  0
 20 21  1  0
 21 22  2  0
 22 23  1  0
 23 24  2  0
 24 25  1  0
  3 26  1  0
 26 27  1  0
 27 28  1  0
 28 29  2  0
 29 30  1  0
 30 31  2  0
 31 32  1  0
 32 33  2  0
 32 34  1  0
 34 35  1  0
 35 36  1  0
 25  6  2  0
 33 28  1  0
 19 10  1  0
 24 20  1  0
 36 31  1  0
 18 14  2  0
  1 37  1  0
  1 38  1  0
  1 39  1  0
  2 40  1  0
  2 41  1  0
  7 42  1  0
 16 43  1  0
 17 44  1  0
 19 45  1  0
 21 46  1  0
 25 47  1  0
 26 48  1  0
 27 49  1  0
 27 50  1  0
 29 51  1  0
 30 52  1  0
 33 53  1  0
 35 54  1  0
 35 55  1  0
M  END
>  <Energy>  (154) 
-108.20900295378816

>  <compound_id>  (154) 
1639

>  <target_id>  (154) 
1

>  <reference_id>  (154) 
197

>  <inspiration_ids>  (154) 
[165, 197]

>  <energy_score>  (154) 
-78.46321872184937

>  <distance_score>  (154) 
1.3308481511143326

>  <path>  (154) 
/opt/xchem-fragalysis-2/maxwin/BulkDock/SCRATCH/505736/C1639-P197/C1639-P197.minimised.mol

>  <scratch_subdir>  (154) 
/opt/xchem-fragalysis-2/maxwin/BulkDock/SCRATCH/505736/C1639-P197

>  <fragmenstein_runtime>  (154) 
6.3530824184417725

>  <fragmenstein_outcome>  (154) 
too moved

>  <fragmenstein_mode>  (154) 
expansion

>  <fragmenstein_error>  (154) 


$$$$
C2434-P165
     RDKit          3D

 43 48  0  0  0  0  0  0  0  0999 V2000
    1.0944   -4.6491   35.9978 C   0  0  0  0  0  0  0  0  0  0  0  0
    2.5682   -4.4892   35.8143 C   0  0  0  0  0  0  0  0  0  0  0  0
    3.3265   -4.3542   36.9825 C   0  0  0  0  0  0  0  0  0  0  0  0
    4.7093   -4.4482   36.9436 C   0  0  0  0  0  0  0  0  0  0  0  0
    5.3317   -4.6638   35.7344 C   0  0  0  0  0  0  0  0  0  0  0  0
    6.6252   -4.9670   35.7020 F   0  0  0  0  0  0  0  0  0  0  0  0
    4.6270   -4.6558   34.5541 C   0  0  0  0  0  0  0  0  0  0  0  0
    3.2431   -4.5430   34.5858 C   0  0  0  0  0  0  0  0  0  0  0  0
    2.4565   -4.7291   33.0753 S   0  0  0  0  0  0  0  0  0  0  0  0
    3.2959   -4.4062   31.5590 C   0  0  0  0  0  0  0  0  0  0  0  0
    4.5389   -4.7297   31.4308 N   0  0  0  0  0  0  0  0  0  0  0  0
    5.0460   -4.9175   30.1503 C   0  0  0  0  0  0  0  0  0  0  0  0
    6.2014   -5.2468   29.9348 O   0  0  0  0  0  0  0  0  0  0  0  0
    4.0368   -4.9245   29.1391 C   0  0  0  0  0  0  0  0  0  0  0  0
    4.2332   -5.6610   27.6415 S   0  0  0  0  0  0  0  0  0  0  0  0
    2.6445   -5.2307   27.2309 C   0  0  0  0  0  0  0  0  0  0  0  0
    1.9646   -4.5508   28.2205 C   0  0  0  0  0  0  0  0  0  0  0  0
    2.7806   -4.4484   29.3476 C   0  0  0  0  0  0  0  0  0  0  0  0
    2.4340   -4.0150   30.5659 N   0  0  0  0  0  0  0  0  0  0  0  0
    1.9778   -6.4804   33.0099 C   0  0  0  0  0  0  0  0  0  0  0  0
    0.5462   -6.4406   32.6467 C   0  0  0  0  0  0  0  0  0  0  0  0
   -0.3179   -7.2203   32.0390 N   0  0  0  0  0  0  0  0  0  0  0  0
   -1.3310   -6.3756   31.5669 N   0  0  0  0  0  0  0  0  0  0  0  0
   -1.0288   -5.1294   31.9027 C   0  0  0  0  0  0  0  0  0  0  0  0
   -1.4295   -3.7921   31.5947 C   0  0  0  0  0  0  0  0  0  0  0  0
   -0.7249   -2.7331   32.0570 C   0  0  0  0  0  0  0  0  0  0  0  0
    0.5310   -2.8861   32.7757 C   0  0  0  0  0  0  0  0  0  0  0  0
    0.8824   -4.1473   33.0072 C   0  0  0  0  0  0  0  0  0  0  0  0
    0.0712   -5.1868   32.6702 N   0  0  0  0  0  0  0  0  0  0  0  0
    0.5604   -3.7632   35.6452 H   0  0  0  0  0  0  0  0  0  0  0  0
    0.8293   -4.7688   37.0552 H   0  0  0  0  0  0  0  0  0  0  0  0
    0.7265   -5.5488   35.4995 H   0  0  0  0  0  0  0  0  0  0  0  0
    2.8413   -4.2602   37.9533 H   0  0  0  0  0  0  0  0  0  0  0  0
    5.2940   -4.4305   37.8578 H   0  0  0  0  0  0  0  0  0  0  0  0
    5.1963   -4.8125   33.6478 H   0  0  0  0  0  0  0  0  0  0  0  0
    2.3419   -5.5263   26.2468 H   0  0  0  0  0  0  0  0  0  0  0  0
    0.9419   -4.1999   28.1518 H   0  0  0  0  0  0  0  0  0  0  0  0
    1.4672   -3.7883   30.7507 H   0  0  0  0  0  0  0  0  0  0  0  0
    2.5376   -6.8645   32.1871 H   0  0  0  0  0  0  0  0  0  0  0  0
    2.1848   -6.9801   33.9549 H   0  0  0  0  0  0  0  0  0  0  0  0
   -2.2971   -3.5755   30.9960 H   0  0  0  0  0  0  0  0  0  0  0  0
   -1.0450   -1.7189   31.8246 H   0  0  0  0  0  0  0  0  0  0  0  0
    1.2028   -2.0401   32.8767 H   0  0  0  0  0  0  0  0  0  0  0  0
  1  2  1  0
  2  3  2  0
  3  4  1  0
  4  5  2  0
  5  6  1  0
  5  7  1  0
  7  8  2  0
  8  9  1  0
  9 10  1  0
 10 11  2  0
 11 12  1  0
 12 13  2  0
 12 14  1  0
 14 15  1  0
 15 16  1  0
 16 17  2  0
 17 18  1  0
 18 19  1  0
  9 20  1  0
 20 21  1  0
 21 22  2  0
 22 23  1  0
 23 24  2  0
 24 25  1  0
 25 26  2  0
 26 27  1  0
 27 28  2  0
 28 29  1  0
  8  2  1  0
 28  9  1  0
 19 10  1  0
 29 21  1  0
 18 14  2  0
 29 24  1  0
  1 30  1  0
  1 31  1  0
  1 32  1  0
  3 33  1  0
  4 34  1  0
  7 35  1  0
 16 36  1  0
 17 37  1  0
 19 38  1  0
 20 39  1  0
 20 40  1  0
 25 41  1  0
 26 42  1  0
 27 43  1  0
M  END
>  <Energy>  (155) 
71.199582974609882

>  <compound_id>  (155) 
2434

>  <target_id>  (155) 
1

>  <reference_id>  (155) 
165

>  <inspiration_ids>  (155) 
[165, 201]

>  <energy_score>  (155) 
-27.390397994711066

>  <distance_score>  (155) 
2.643223611290402

>  <path>  (155) 
/opt/xchem-fragalysis-2/maxwin/BulkDock/SCRATCH/505736/C2434-P165/C2434-P165.minimised.mol

>  <scratch_subdir>  (155) 
/opt/xchem-fragalysis-2/maxwin/BulkDock/SCRATCH/505736/C2434-P165

>  <fragmenstein_runtime>  (155) 
8.121442079544067

>  <fragmenstein_outcome>  (155) 
too moved

>  <fragmenstein_mode>  (155) 
expansion

>  <fragmenstein_error>  (155) 


$$$$
C2434-P201
     RDKit          3D

 43 48  0  0  0  0  0  0  0  0999 V2000
    0.7947   -4.0599   35.8790 C   0  0  0  0  0  0  0  0  0  0  0  0
    2.2529   -4.2312   35.6300 C   0  0  0  0  0  0  0  0  0  0  0  0
    3.1380   -3.8455   36.6454 C   0  0  0  0  0  0  0  0  0  0  0  0
    4.4966   -4.1278   36.5534 C   0  0  0  0  0  0  0  0  0  0  0  0
    4.9693   -4.7950   35.4428 C   0  0  0  0  0  0  0  0  0  0  0  0
    6.2262   -5.2314   35.4074 F   0  0  0  0  0  0  0  0  0  0  0  0
    4.1410   -5.0861   34.3832 C   0  0  0  0  0  0  0  0  0  0  0  0
    2.7868   -4.7757   34.4635 C   0  0  0  0  0  0  0  0  0  0  0  0
    1.8574   -5.2795   33.1239 S   0  0  0  0  0  0  0  0  0  0  0  0
    2.6792   -5.2962   31.5504 C   0  0  0  0  0  0  0  0  0  0  0  0
    3.6730   -4.5087   31.2893 N   0  0  0  0  0  0  0  0  0  0  0  0
    4.2110   -4.5262   30.0028 C   0  0  0  0  0  0  0  0  0  0  0  0
    5.2989   -4.0467   29.7329 O   0  0  0  0  0  0  0  0  0  0  0  0
    3.4481   -5.2697   29.0413 C   0  0  0  0  0  0  0  0  0  0  0  0
    3.7903   -5.3817   27.3929 S   0  0  0  0  0  0  0  0  0  0  0  0
    2.7664   -6.7427   27.2466 C   0  0  0  0  0  0  0  0  0  0  0  0
    2.0797   -7.0017   28.4103 C   0  0  0  0  0  0  0  0  0  0  0  0
    2.4396   -6.0942   29.4101 C   0  0  0  0  0  0  0  0  0  0  0  0
    2.0384   -6.1285   30.6831 N   0  0  0  0  0  0  0  0  0  0  0  0
    0.9924   -6.7950   33.5589 C   0  0  0  0  0  0  0  0  0  0  0  0
   -0.2273   -6.6889   32.7146 C   0  0  0  0  0  0  0  0  0  0  0  0
   -0.7552   -7.5219   31.8405 N   0  0  0  0  0  0  0  0  0  0  0  0
   -1.1691   -6.7552   30.7551 N   0  0  0  0  0  0  0  0  0  0  0  0
   -0.8702   -5.4909   31.0146 C   0  0  0  0  0  0  0  0  0  0  0  0
   -0.6442   -4.3241   30.2129 C   0  0  0  0  0  0  0  0  0  0  0  0
   -0.0465   -3.2378   30.7450 C   0  0  0  0  0  0  0  0  0  0  0  0
    0.5650   -3.2672   32.0687 C   0  0  0  0  0  0  0  0  0  0  0  0
    0.4214   -4.4101   32.7522 C   0  0  0  0  0  0  0  0  0  0  0  0
   -0.4504   -5.3988   32.3161 N   0  0  0  0  0  0  0  0  0  0  0  0
    0.4017   -3.2271   35.2886 H   0  0  0  0  0  0  0  0  0  0  0  0
    0.5923   -3.8273   36.9312 H   0  0  0  0  0  0  0  0  0  0  0  0
    0.2292   -4.9676   35.6607 H   0  0  0  0  0  0  0  0  0  0  0  0
    2.7649   -3.3725   37.5527 H   0  0  0  0  0  0  0  0  0  0  0  0
    5.1711   -3.8860   37.3683 H   0  0  0  0  0  0  0  0  0  0  0  0
    4.5825   -5.5795   33.5262 H   0  0  0  0  0  0  0  0  0  0  0  0
    2.7663   -7.2893   26.3139 H   0  0  0  0  0  0  0  0  0  0  0  0
    1.4300   -7.8555   28.5598 H   0  0  0  0  0  0  0  0  0  0  0  0
    1.2806   -6.7452   30.9631 H   0  0  0  0  0  0  0  0  0  0  0  0
    1.6201   -7.6144   33.2967 H   0  0  0  0  0  0  0  0  0  0  0  0
    0.7608   -6.8183   34.6231 H   0  0  0  0  0  0  0  0  0  0  0  0
   -0.9451   -4.3086   29.1690 H   0  0  0  0  0  0  0  0  0  0  0  0
    0.1263   -2.3537   30.1343 H   0  0  0  0  0  0  0  0  0  0  0  0
    1.4062   -2.5961   32.2318 H   0  0  0  0  0  0  0  0  0  0  0  0
  1  2  1  0
  2  3  2  0
  3  4  1  0
  4  5  2  0
  5  6  1  0
  5  7  1  0
  7  8  2  0
  8  9  1  0
  9 10  1  0
 10 11  2  0
 11 12  1  0
 12 13  2  0
 12 14  1  0
 14 15  1  0
 15 16  1  0
 16 17  2  0
 17 18  1  0
 18 19  1  0
  9 20  1  0
 20 21  1  0
 21 22  2  0
 22 23  1  0
 23 24  2  0
 24 25  1  0
 25 26  2  0
 26 27  1  0
 27 28  2  0
 28 29  1  0
  8  2  1  0
 28  9  1  0
 19 10  1  0
 29 21  1  0
 18 14  2  0
 29 24  1  0
  1 30  1  0
  1 31  1  0
  1 32  1  0
  3 33  1  0
  4 34  1  0
  7 35  1  0
 16 36  1  0
 17 37  1  0
 19 38  1  0
 20 39  1  0
 20 40  1  0
 25 41  1  0
 26 42  1  0
 27 43  1  0
M  END
>  <Energy>  (156) 
88.382907824243375

>  <compound_id>  (156) 
2434

>  <target_id>  (156) 
1

>  <reference_id>  (156) 
201

>  <inspiration_ids>  (156) 
[165, 201]

>  <energy_score>  (156) 
-10.207073145077743

>  <distance_score>  (156) 
2.526533723768334

>  <path>  (156) 
/opt/xchem-fragalysis-2/maxwin/BulkDock/SCRATCH/505736/C2434-P201/C2434-P201.minimised.mol

>  <scratch_subdir>  (156) 
/opt/xchem-fragalysis-2/maxwin/BulkDock/SCRATCH/505736/C2434-P201

>  <fragmenstein_runtime>  (156) 
8.030530214309692

>  <fragmenstein_outcome>  (156) 
too moved

>  <fragmenstein_mode>  (156) 
expansion

>  <fragmenstein_error>  (156) 


$$$$
C2435-P165
     RDKit          3D

 55 59  0  0  0  0  0  0  0  0999 V2000
    6.2731   -2.2991   29.9919 C   0  0  0  0  0  0  0  0  0  0  0  0
    5.7632   -3.4463   30.6829 O   0  0  0  0  0  0  0  0  0  0  0  0
    4.8222   -3.3499   31.6599 C   0  0  0  0  0  0  0  0  0  0  0  0
    4.3391   -4.3741   32.1412 O   0  0  0  0  0  0  0  0  0  0  0  0
    4.3771   -1.9533   32.0877 C   0  0  0  0  0  0  0  0  0  0  0  0
    3.2363   -1.5407   31.3249 N   0  0  0  0  0  0  0  0  0  0  0  0
    1.7159   -1.6116   31.6558 C   0  0  0  0  0  0  0  0  0  0  0  0
    1.1514   -1.9549   32.6582 N   0  0  0  0  0  0  0  0  0  0  0  0
   -0.2649   -2.1894   32.8060 C   0  0  0  0  0  0  0  0  0  0  0  0
   -0.5113   -3.4859   33.3591 N   0  0  0  0  0  0  0  0  0  0  0  0
   -0.3708   -4.7122   32.7504 C   0  0  0  0  0  0  0  0  0  0  0  0
    0.0353   -4.7641   31.3481 C   0  0  0  0  0  0  0  0  0  0  0  0
    0.0018   -5.8852   30.6198 C   0  0  0  0  0  0  0  0  0  0  0  0
   -0.5661   -7.0370   31.1887 C   0  0  0  0  0  0  0  0  0  0  0  0
   -0.9893   -8.1624   30.6655 N   0  0  0  0  0  0  0  0  0  0  0  0
   -1.5654   -8.8833   31.6733 N   0  0  0  0  0  0  0  0  0  0  0  0
   -1.4542   -8.1913   32.7849 C   0  0  0  0  0  0  0  0  0  0  0  0
   -0.8256   -7.0071   32.5490 N   0  0  0  0  0  0  0  0  0  0  0  0
   -0.6170   -5.8949   33.3688 C   0  0  0  0  0  0  0  0  0  0  0  0
   -0.7559   -6.0351   35.1128 S   0  0  0  0  0  0  0  0  0  0  0  0
    0.8652   -5.4641   35.5188 C   0  0  0  0  0  0  0  0  0  0  0  0
    1.0627   -4.1874   35.5872 N   0  0  0  0  0  0  0  0  0  0  0  0
    2.3613   -3.7116   35.6846 C   0  0  0  0  0  0  0  0  0  0  0  0
    2.6145   -2.5219   35.8364 O   0  0  0  0  0  0  0  0  0  0  0  0
    3.3653   -4.7494   35.6035 C   0  0  0  0  0  0  0  0  0  0  0  0
    5.0356   -4.4716   35.5295 S   0  0  0  0  0  0  0  0  0  0  0  0
    5.3549   -6.1593   35.5137 C   0  0  0  0  0  0  0  0  0  0  0  0
    4.2015   -6.9151   35.5750 C   0  0  0  0  0  0  0  0  0  0  0  0
    3.0652   -6.0872   35.6060 C   0  0  0  0  0  0  0  0  0  0  0  0
    1.7818   -6.4746   35.6352 N   0  0  0  0  0  0  0  0  0  0  0  0
    1.0001   -1.2034   30.4457 C   0  0  0  0  0  0  0  0  0  0  0  0
    0.1239   -0.1088   30.2606 C   0  0  0  0  0  0  0  0  0  0  0  0
   -0.2227   -0.1825   28.9356 C   0  0  0  0  0  0  0  0  0  0  0  0
   -1.0401    0.6285   28.0284 C   0  0  0  0  0  0  0  0  0  0  0  0
    0.3699   -1.2647   28.3715 O   0  0  0  0  0  0  0  0  0  0  0  0
    1.1543   -1.8977   29.3081 N   0  0  0  0  0  0  0  0  0  0  0  0
    6.8819   -2.6578   29.1572 H   0  0  0  0  0  0  0  0  0  0  0  0
    6.9149   -1.7148   30.6566 H   0  0  0  0  0  0  0  0  0  0  0  0
    5.4616   -1.6925   29.5830 H   0  0  0  0  0  0  0  0  0  0  0  0
    4.1234   -2.0020   33.1527 H   0  0  0  0  0  0  0  0  0  0  0  0
    5.1906   -1.2284   32.0159 H   0  0  0  0  0  0  0  0  0  0  0  0
    3.3627   -1.1246   30.4064 H   0  0  0  0  0  0  0  0  0  0  0  0
   -0.6664   -1.4392   33.4970 H   0  0  0  0  0  0  0  0  0  0  0  0
   -0.8507   -2.0813   31.8876 H   0  0  0  0  0  0  0  0  0  0  0  0
   -0.4115   -3.5117   34.3763 H   0  0  0  0  0  0  0  0  0  0  0  0
    0.4453   -3.8816   30.8834 H   0  0  0  0  0  0  0  0  0  0  0  0
    0.3498   -5.8803   29.6005 H   0  0  0  0  0  0  0  0  0  0  0  0
   -1.8541   -8.4611   33.7486 H   0  0  0  0  0  0  0  0  0  0  0  0
    6.3771   -6.5102   35.4669 H   0  0  0  0  0  0  0  0  0  0  0  0
    4.2061   -7.9969   35.5852 H   0  0  0  0  0  0  0  0  0  0  0  0
    1.4483   -7.4296   35.6025 H   0  0  0  0  0  0  0  0  0  0  0  0
   -0.1769    0.6368   30.9796 H   0  0  0  0  0  0  0  0  0  0  0  0
   -1.6614    1.3367   28.5837 H   0  0  0  0  0  0  0  0  0  0  0  0
   -1.7002   -0.0039   27.4273 H   0  0  0  0  0  0  0  0  0  0  0  0
   -0.4023    1.2005   27.3477 H   0  0  0  0  0  0  0  0  0  0  0  0
  1  2  1  0
  2  3  1  0
  3  4  2  0
  3  5  1  0
  5  6  1  0
  6  7  1  0
  7  8  2  3
  8  9  1  0
  9 10  1  0
 10 11  1  0
 11 12  1  0
 12 13  2  0
 13 14  1  0
 14 15  2  0
 15 16  1  0
 16 17  2  0
 17 18  1  0
 18 19  1  0
 19 20  1  0
 20 21  1  0
 21 22  2  0
 22 23  1  0
 23 24  2  0
 23 25  1  0
 25 26  1  0
 26 27  1  0
 27 28  2  0
 28 29  1  0
 29 30  1  0
  7 31  1  0
 31 32  1  0
 32 33  2  0
 33 34  1  0
 33 35  1  0
 35 36  1  0
 19 11  2  0
 30 21  1  0
 36 31  2  0
 18 14  1  0
 29 25  2  0
  1 37  1  0
  1 38  1  0
  1 39  1  0
  5 40  1  0
  5 41  1  0
  6 42  1  0
  9 43  1  0
  9 44  1  0
 10 45  1  0
 12 46  1  0
 13 47  1  0
 17 48  1  0
 27 49  1  0
 28 50  1  0
 30 51  1  0
 32 52  1  0
 34 53  1  0
 34 54  1  0
 34 55  1  0
M  END
>  <Energy>  (157) 
12.755965358509318

>  <compound_id>  (157) 
2435

>  <target_id>  (157) 
1

>  <reference_id>  (157) 
165

>  <inspiration_ids>  (157) 
[165, 202]

>  <energy_score>  (157) 
-30.76965448684308

>  <distance_score>  (157) 
1.7791115766873373

>  <path>  (157) 
/opt/xchem-fragalysis-2/maxwin/BulkDock/SCRATCH/505736/C2435-P165/C2435-P165.minimised.mol

>  <scratch_subdir>  (157) 
/opt/xchem-fragalysis-2/maxwin/BulkDock/SCRATCH/505736/C2435-P165

>  <fragmenstein_runtime>  (157) 
8.730390310287476

>  <fragmenstein_outcome>  (157) 
too moved

>  <fragmenstein_mode>  (157) 
expansion

>  <fragmenstein_error>  (157) 


$$$$
C2435-P202
     RDKit          3D

 55 59  0  0  0  0  0  0  0  0999 V2000
    6.9054   -4.3317   31.9998 C   0  0  0  0  0  0  0  0  0  0  0  0
    6.2714   -3.0783   32.2559 O   0  0  0  0  0  0  0  0  0  0  0  0
    5.0119   -2.9705   31.7330 C   0  0  0  0  0  0  0  0  0  0  0  0
    4.4431   -3.8619   31.1137 O   0  0  0  0  0  0  0  0  0  0  0  0
    4.4604   -1.5790   32.0324 C   0  0  0  0  0  0  0  0  0  0  0  0
    3.2744   -1.3025   31.2710 N   0  0  0  0  0  0  0  0  0  0  0  0
    1.7719   -1.5324   31.6145 C   0  0  0  0  0  0  0  0  0  0  0  0
    1.2530   -1.9206   32.6268 N   0  0  0  0  0  0  0  0  0  0  0  0
   -0.1527   -2.2242   32.7822 C   0  0  0  0  0  0  0  0  0  0  0  0
   -0.3390   -3.5315   33.3289 N   0  0  0  0  0  0  0  0  0  0  0  0
   -0.2472   -4.7499   32.7040 C   0  0  0  0  0  0  0  0  0  0  0  0
    0.1452   -4.7933   31.2962 C   0  0  0  0  0  0  0  0  0  0  0  0
    0.0468   -5.8948   30.5423 C   0  0  0  0  0  0  0  0  0  0  0  0
   -0.5409   -7.0399   31.1050 C   0  0  0  0  0  0  0  0  0  0  0  0
   -0.9711   -8.1618   30.5788 N   0  0  0  0  0  0  0  0  0  0  0  0
   -1.5535   -8.8808   31.5832 N   0  0  0  0  0  0  0  0  0  0  0  0
   -1.4487   -8.1869   32.6930 C   0  0  0  0  0  0  0  0  0  0  0  0
   -0.7881   -7.0193   32.4684 N   0  0  0  0  0  0  0  0  0  0  0  0
   -0.5356   -5.9305   33.3071 C   0  0  0  0  0  0  0  0  0  0  0  0
   -0.6909   -6.0971   35.0515 S   0  0  0  0  0  0  0  0  0  0  0  0
    0.9054   -5.4920   35.5014 C   0  0  0  0  0  0  0  0  0  0  0  0
    1.0670   -4.2128   35.5997 N   0  0  0  0  0  0  0  0  0  0  0  0
    2.3507   -3.7025   35.7130 C   0  0  0  0  0  0  0  0  0  0  0  0
    2.5705   -2.5111   35.8936 O   0  0  0  0  0  0  0  0  0  0  0  0
    3.3827   -4.7098   35.5990 C   0  0  0  0  0  0  0  0  0  0  0  0
    5.0416   -4.3849   35.4992 S   0  0  0  0  0  0  0  0  0  0  0  0
    5.4106   -6.0625   35.4916 C   0  0  0  0  0  0  0  0  0  0  0  0
    4.2795   -6.8510   35.5529 C   0  0  0  0  0  0  0  0  0  0  0  0
    3.1208   -6.0554   35.5866 C   0  0  0  0  0  0  0  0  0  0  0  0
    1.8492   -6.4782   35.6088 N   0  0  0  0  0  0  0  0  0  0  0  0
    1.0029   -1.1637   30.4267 C   0  0  0  0  0  0  0  0  0  0  0  0
    0.1523   -0.0479   30.2504 C   0  0  0  0  0  0  0  0  0  0  0  0
   -0.2722   -0.1596   28.9518 C   0  0  0  0  0  0  0  0  0  0  0  0
   -1.1107    0.6496   28.0644 C   0  0  0  0  0  0  0  0  0  0  0  0
    0.2496   -1.2827   28.3980 O   0  0  0  0  0  0  0  0  0  0  0  0
    1.0654   -1.9083   29.3136 N   0  0  0  0  0  0  0  0  0  0  0  0
    7.8789   -4.3272   32.4977 H   0  0  0  0  0  0  0  0  0  0  0  0
    7.0652   -4.4638   30.9252 H   0  0  0  0  0  0  0  0  0  0  0  0
    6.3133   -5.1570   32.4063 H   0  0  0  0  0  0  0  0  0  0  0  0
    5.2236   -0.8386   31.7734 H   0  0  0  0  0  0  0  0  0  0  0  0
    4.2463   -1.5136   33.1035 H   0  0  0  0  0  0  0  0  0  0  0  0
    3.3613   -1.0465   30.2904 H   0  0  0  0  0  0  0  0  0  0  0  0
   -0.5795   -1.4969   33.4828 H   0  0  0  0  0  0  0  0  0  0  0  0
   -0.7531   -2.1317   31.8714 H   0  0  0  0  0  0  0  0  0  0  0  0
   -0.3094   -3.5566   34.3498 H   0  0  0  0  0  0  0  0  0  0  0  0
    0.5984   -3.9199   30.8519 H   0  0  0  0  0  0  0  0  0  0  0  0
    0.3774   -5.8908   29.5147 H   0  0  0  0  0  0  0  0  0  0  0  0
   -1.8714   -8.4439   33.6494 H   0  0  0  0  0  0  0  0  0  0  0  0
    6.4430   -6.3842   35.4515 H   0  0  0  0  0  0  0  0  0  0  0  0
    4.3158   -7.9327   35.5655 H   0  0  0  0  0  0  0  0  0  0  0  0
    1.5442   -7.4417   35.5919 H   0  0  0  0  0  0  0  0  0  0  0  0
   -0.0799    0.7350   30.9556 H   0  0  0  0  0  0  0  0  0  0  0  0
   -0.4904    1.2086   27.3573 H   0  0  0  0  0  0  0  0  0  0  0  0
   -1.7056    1.3699   28.6339 H   0  0  0  0  0  0  0  0  0  0  0  0
   -1.7971    0.0188   27.4921 H   0  0  0  0  0  0  0  0  0  0  0  0
  1  2  1  0
  2  3  1  0
  3  4  2  0
  3  5  1  0
  5  6  1  0
  6  7  1  0
  7  8  2  3
  8  9  1  0
  9 10  1  0
 10 11  1  0
 11 12  1  0
 12 13  2  0
 13 14  1  0
 14 15  2  0
 15 16  1  0
 16 17  2  0
 17 18  1  0
 18 19  1  0
 19 20  1  0
 20 21  1  0
 21 22  2  0
 22 23  1  0
 23 24  2  0
 23 25  1  0
 25 26  1  0
 26 27  1  0
 27 28  2  0
 28 29  1  0
 29 30  1  0
  7 31  1  0
 31 32  1  0
 32 33  2  0
 33 34  1  0
 33 35  1  0
 35 36  1  0
 19 11  2  0
 30 21  1  0
 36 31  2  0
 18 14  1  0
 29 25  2  0
  1 37  1  0
  1 38  1  0
  1 39  1  0
  5 40  1  0
  5 41  1  0
  6 42  1  0
  9 43  1  0
  9 44  1  0
 10 45  1  0
 12 46  1  0
 13 47  1  0
 17 48  1  0
 27 49  1  0
 28 50  1  0
 30 51  1  0
 32 52  1  0
 34 53  1  0
 34 54  1  0
 34 55  1  0
M  END
>  <Energy>  (158) 
0.51577428444777462

>  <compound_id>  (158) 
2435

>  <target_id>  (158) 
1

>  <reference_id>  (158) 
202

>  <inspiration_ids>  (158) 
[165, 202]

>  <energy_score>  (158) 
-43.009845560904644

>  <distance_score>  (158) 
1.8234033791008746

>  <path>  (158) 
/opt/xchem-fragalysis-2/maxwin/BulkDock/SCRATCH/505736/C2435-P202/C2435-P202.minimised.mol

>  <scratch_subdir>  (158) 
/opt/xchem-fragalysis-2/maxwin/BulkDock/SCRATCH/505736/C2435-P202

>  <fragmenstein_runtime>  (158) 
10.554755449295044

>  <fragmenstein_outcome>  (158) 
too moved

>  <fragmenstein_mode>  (158) 
expansion

>  <fragmenstein_error>  (158) 


$$$$
C2436-P166
     RDKit          3D

 30 33  0  0  0  0  0  0  0  0999 V2000
   -0.1449   -5.0551   29.4603 N   0  0  0  0  0  0  0  0  0  0  0  0
   -0.2901   -5.7564   30.6657 N   0  0  0  0  0  0  0  0  0  0  0  0
   -0.9318   -6.9289   30.8225 N   0  0  0  0  0  0  0  0  0  0  0  0
   -1.1096   -7.0114   32.1495 C   0  0  0  0  0  0  0  0  0  0  0  0
   -0.5376   -5.9150   32.8388 C   0  0  0  0  0  0  0  0  0  0  0  0
   -0.4441   -5.4283   34.1526 C   0  0  0  0  0  0  0  0  0  0  0  0
   -1.2473   -6.2977   35.4487 S   0  0  0  0  0  0  0  0  0  0  0  0
    0.0937   -6.9532   36.3337 C   0  0  0  0  0  0  0  0  0  0  0  0
    0.1391   -6.8567   37.6233 N   0  0  0  0  0  0  0  0  0  0  0  0
    1.2521   -7.4988   38.1839 C   0  0  0  0  0  0  0  0  0  0  0  0
    1.4700   -7.6202   39.5721 C   0  0  0  0  0  0  0  0  0  0  0  0
    2.6326   -8.3219   39.8260 C   0  0  0  0  0  0  0  0  0  0  0  0
    3.4378   -8.7964   38.3789 S   0  0  0  0  0  0  0  0  0  0  0  0
    2.2221   -8.1027   37.4298 C   0  0  0  0  0  0  0  0  0  0  0  0
    2.1513   -8.1490   36.0028 C   0  0  0  0  0  0  0  0  0  0  0  0
    2.9459   -8.6566   35.2120 O   0  0  0  0  0  0  0  0  0  0  0  0
    1.0185   -7.5525   35.5243 N   0  0  0  0  0  0  0  0  0  0  0  0
    0.2845   -4.2575   34.4014 C   0  0  0  0  0  0  0  0  0  0  0  0
    0.9208   -3.5745   33.3719 C   0  0  0  0  0  0  0  0  0  0  0  0
    0.8232   -4.0207   32.0643 C   0  0  0  0  0  0  0  0  0  0  0  0
    0.0758   -5.1775   31.8396 C   0  0  0  0  0  0  0  0  0  0  0  0
   -0.6135   -5.5681   28.7125 H   0  0  0  0  0  0  0  0  0  0  0  0
   -0.6474   -4.1682   29.4852 H   0  0  0  0  0  0  0  0  0  0  0  0
   -1.6649   -7.8503   32.5542 H   0  0  0  0  0  0  0  0  0  0  0  0
    0.8158   -7.2317   40.3417 H   0  0  0  0  0  0  0  0  0  0  0  0
    3.0557   -8.5773   40.7877 H   0  0  0  0  0  0  0  0  0  0  0  0
    0.8508   -7.5969   34.5363 H   0  0  0  0  0  0  0  0  0  0  0  0
    0.3517   -3.8619   35.4144 H   0  0  0  0  0  0  0  0  0  0  0  0
    1.4756   -2.6642   33.5921 H   0  0  0  0  0  0  0  0  0  0  0  0
    1.2831   -3.4678   31.2495 H   0  0  0  0  0  0  0  0  0  0  0  0
  1  2  1  0
  2  3  1  0
  3  4  2  0
  4  5  1  0
  5  6  2  0
  6  7  1  0
  7  8  1  0
  8  9  2  0
  9 10  1  0
 10 11  1  0
 11 12  2  0
 12 13  1  0
 13 14  1  0
 14 15  1  0
 15 16  2  0
 15 17  1  0
  6 18  1  0
 18 19  2  0
 19 20  1  0
 20 21  2  0
 21  2  1  0
 21  5  1  0
 17  8  1  0
 14 10  2  0
  1 22  1  0
  1 23  1  0
  4 24  1  0
 11 25  1  0
 12 26  1  0
 17 27  1  0
 18 28  1  0
 19 29  1  0
 20 30  1  0
M  END
>  <Energy>  (159) 
-90.451247990267461

>  <compound_id>  (159) 
2436

>  <target_id>  (159) 
1

>  <reference_id>  (159) 
166

>  <inspiration_ids>  (159) 
[166, 13]

>  <energy_score>  (159) 
-44.912633873952906

>  <distance_score>  (159) 
1.6460145184816468

>  <path>  (159) 
/opt/xchem-fragalysis-2/maxwin/BulkDock/SCRATCH/505736/C2436-P166/C2436-P166.minimised.mol

>  <scratch_subdir>  (159) 
/opt/xchem-fragalysis-2/maxwin/BulkDock/SCRATCH/505736/C2436-P166

>  <fragmenstein_runtime>  (159) 
1.356377124786377

>  <fragmenstein_outcome>  (159) 
too moved

>  <fragmenstein_mode>  (159) 
expansion

>  <fragmenstein_error>  (159) 


$$$$
C2436-P13
     RDKit          3D

 30 33  0  0  0  0  0  0  0  0999 V2000
   -0.2378   -4.8239   29.5411 N   0  0  0  0  0  0  0  0  0  0  0  0
   -0.3177   -5.6008   30.7064 N   0  0  0  0  0  0  0  0  0  0  0  0
   -0.9053   -6.8083   30.8183 N   0  0  0  0  0  0  0  0  0  0  0  0
   -1.0447   -6.9651   32.1423 C   0  0  0  0  0  0  0  0  0  0  0  0
   -0.4953   -5.8853   32.8722 C   0  0  0  0  0  0  0  0  0  0  0  0
   -0.3922   -5.4608   34.2056 C   0  0  0  0  0  0  0  0  0  0  0  0
   -1.1740   -6.4029   35.4627 S   0  0  0  0  0  0  0  0  0  0  0  0
    0.1785   -7.0856   36.3030 C   0  0  0  0  0  0  0  0  0  0  0  0
    0.1991   -7.0872   37.5965 N   0  0  0  0  0  0  0  0  0  0  0  0
    1.3129   -7.7461   38.1306 C   0  0  0  0  0  0  0  0  0  0  0  0
    1.5250   -7.9283   39.5128 C   0  0  0  0  0  0  0  0  0  0  0  0
    2.6826   -8.6477   39.7380 C   0  0  0  0  0  0  0  0  0  0  0  0
    3.4814   -9.0756   38.2719 S   0  0  0  0  0  0  0  0  0  0  0  0
    2.2868   -8.3117   37.3519 C   0  0  0  0  0  0  0  0  0  0  0  0
    2.2413   -8.2630   35.9237 C   0  0  0  0  0  0  0  0  0  0  0  0
    3.0408   -8.7355   35.1171 O   0  0  0  0  0  0  0  0  0  0  0  0
    1.1252   -7.6155   35.4687 N   0  0  0  0  0  0  0  0  0  0  0  0
    0.3163   -4.2886   34.4994 C   0  0  0  0  0  0  0  0  0  0  0  0
    0.9177   -3.5414   33.4933 C   0  0  0  0  0  0  0  0  0  0  0  0
    0.7981   -3.9197   32.1664 C   0  0  0  0  0  0  0  0  0  0  0  0
    0.0723   -5.0802   31.8992 C   0  0  0  0  0  0  0  0  0  0  0  0
   -0.6001   -5.3563   28.7492 H   0  0  0  0  0  0  0  0  0  0  0  0
   -0.8553   -4.0147   29.5879 H   0  0  0  0  0  0  0  0  0  0  0  0
   -1.5566   -7.8438   32.5172 H   0  0  0  0  0  0  0  0  0  0  0  0
    0.8725   -7.5697   40.2987 H   0  0  0  0  0  0  0  0  0  0  0  0
    3.1030   -8.9479   40.6885 H   0  0  0  0  0  0  0  0  0  0  0  0
    0.9868   -7.5828   34.4742 H   0  0  0  0  0  0  0  0  0  0  0  0
    0.3911   -3.9391   35.5285 H   0  0  0  0  0  0  0  0  0  0  0  0
    1.4556   -2.6300   33.7479 H   0  0  0  0  0  0  0  0  0  0  0  0
    1.2214   -3.3127   31.3704 H   0  0  0  0  0  0  0  0  0  0  0  0
  1  2  1  0
  2  3  1  0
  3  4  2  0
  4  5  1  0
  5  6  2  0
  6  7  1  0
  7  8  1  0
  8  9  2  0
  9 10  1  0
 10 11  1  0
 11 12  2  0
 12 13  1  0
 13 14  1  0
 14 15  1  0
 15 16  2  0
 15 17  1  0
  6 18  1  0
 18 19  2  0
 19 20  1  0
 20 21  2  0
 21  2  1  0
 21  5  1  0
 17  8  1  0
 14 10  2  0
  1 22  1  0
  1 23  1  0
  4 24  1  0
 11 25  1  0
 12 26  1  0
 17 27  1  0
 18 28  1  0
 19 29  1  0
 20 30  1  0
M  END
>  <Energy>  (160) 
-90.382616272885855

>  <compound_id>  (160) 
2436

>  <target_id>  (160) 
1

>  <reference_id>  (160) 
13

>  <inspiration_ids>  (160) 
[166, 13]

>  <energy_score>  (160) 
-44.844002156571776

>  <distance_score>  (160) 
1.6646110743498646

>  <path>  (160) 
/opt/xchem-fragalysis-2/maxwin/BulkDock/SCRATCH/505736/C2436-P13/C2436-P13.minimised.mol

>  <scratch_subdir>  (160) 
/opt/xchem-fragalysis-2/maxwin/BulkDock/SCRATCH/505736/C2436-P13

>  <fragmenstein_runtime>  (160) 
1.0253167152404785

>  <fragmenstein_outcome>  (160) 
too moved

>  <fragmenstein_mode>  (160) 
expansion

>  <fragmenstein_error>  (160) 


$$$$
C2438-P166
     RDKit          3D

 56 60  0  0  0  0  0  0  0  0999 V2000
    5.4625   -1.7666   33.5441 C   0  0  0  0  0  0  0  0  0  0  0  0
    4.2980   -1.4657   34.3258 N   0  0  0  0  0  0  0  0  0  0  0  0
    3.0073   -0.9748   33.9397 C   0  0  0  0  0  0  0  0  0  0  0  0
    2.5946   -0.6156   32.8762 O   0  0  0  0  0  0  0  0  0  0  0  0
    2.0672   -0.9442   35.1517 C   0  0  0  0  0  0  0  0  0  0  0  0
    1.1071   -2.1446   35.2499 C   0  0  0  0  0  0  0  0  0  0  0  0
    1.8069   -3.5148   35.2591 C   0  0  0  0  0  0  0  0  0  0  0  0
    1.7817   -4.1916   33.8887 C   0  0  0  0  0  0  0  0  0  0  0  0
    0.3281   -4.4655   33.3477 C   0  0  0  0  0  0  0  0  0  0  0  0
    0.3318   -4.1502   31.8013 C   0  0  0  0  0  0  0  0  0  0  0  0
    0.7706   -5.3261   30.9376 C   0  0  0  0  0  0  0  0  0  0  0  0
   -0.1609   -6.4429   31.1935 C   0  0  0  0  0  0  0  0  0  0  0  0
   -0.7032   -7.2795   30.3431 N   0  0  0  0  0  0  0  0  0  0  0  0
   -1.5373   -8.0953   31.0580 N   0  0  0  0  0  0  0  0  0  0  0  0
   -1.4594   -7.7683   32.3277 C   0  0  0  0  0  0  0  0  0  0  0  0
   -2.1304   -8.3638   33.3267 N   0  0  0  0  0  0  0  0  0  0  0  0
   -0.6228   -6.6982   32.4651 N   0  0  0  0  0  0  0  0  0  0  0  0
   -0.0307   -6.0119   33.6202 C   0  0  0  0  0  0  0  0  0  0  0  0
   -0.8388   -6.3394   35.2320 S   0  0  0  0  0  0  0  0  0  0  0  0
    0.4607   -7.0704   36.1466 C   0  0  0  0  0  0  0  0  0  0  0  0
    1.4440   -7.6106   35.5054 N   0  0  0  0  0  0  0  0  0  0  0  0
    2.4736   -8.1920   36.2189 C   0  0  0  0  0  0  0  0  0  0  0  0
    3.4245   -8.6925   35.6298 O   0  0  0  0  0  0  0  0  0  0  0  0
    2.3040   -8.1463   37.6519 C   0  0  0  0  0  0  0  0  0  0  0  0
    3.3904   -8.8109   38.7716 S   0  0  0  0  0  0  0  0  0  0  0  0
    2.3905   -8.3350   40.0886 C   0  0  0  0  0  0  0  0  0  0  0  0
    1.2556   -7.6668   39.6699 C   0  0  0  0  0  0  0  0  0  0  0  0
    1.2254   -7.5627   38.2614 C   0  0  0  0  0  0  0  0  0  0  0  0
    0.2840   -6.9785   37.5018 N   0  0  0  0  0  0  0  0  0  0  0  0
   -0.6637   -3.4438   33.9968 C   0  0  0  0  0  0  0  0  0  0  0  0
   -0.0190   -2.0713   34.1996 C   0  0  0  0  0  0  0  0  0  0  0  0
    5.7113   -2.8207   33.6857 H   0  0  0  0  0  0  0  0  0  0  0  0
    6.2875   -1.1436   33.8961 H   0  0  0  0  0  0  0  0  0  0  0  0
    5.2628   -1.5663   32.4890 H   0  0  0  0  0  0  0  0  0  0  0  0
    4.3147   -1.5968   35.3294 H   0  0  0  0  0  0  0  0  0  0  0  0
    2.6465   -0.8680   36.0798 H   0  0  0  0  0  0  0  0  0  0  0  0
    1.4939   -0.0096   35.0955 H   0  0  0  0  0  0  0  0  0  0  0  0
    0.6223   -2.0477   36.2326 H   0  0  0  0  0  0  0  0  0  0  0  0
    2.8370   -3.4285   35.6207 H   0  0  0  0  0  0  0  0  0  0  0  0
    1.3017   -4.1652   35.9828 H   0  0  0  0  0  0  0  0  0  0  0  0
    2.3345   -3.5555   33.1881 H   0  0  0  0  0  0  0  0  0  0  0  0
    2.3704   -5.1146   33.9389 H   0  0  0  0  0  0  0  0  0  0  0  0
    0.9588   -3.2793   31.5758 H   0  0  0  0  0  0  0  0  0  0  0  0
   -0.6829   -3.8693   31.4839 H   0  0  0  0  0  0  0  0  0  0  0  0
    1.7979   -5.6199   31.1755 H   0  0  0  0  0  0  0  0  0  0  0  0
    0.7402   -5.0437   29.8801 H   0  0  0  0  0  0  0  0  0  0  0  0
   -1.5804   -8.7766   34.0855 H   0  0  0  0  0  0  0  0  0  0  0  0
   -2.7407   -9.1015   32.9661 H   0  0  0  0  0  0  0  0  0  0  0  0
    0.9321   -6.5279   33.6314 H   0  0  0  0  0  0  0  0  0  0  0  0
    2.6868   -8.5700   41.1019 H   0  0  0  0  0  0  0  0  0  0  0  0
    0.5036   -7.2887   40.3507 H   0  0  0  0  0  0  0  0  0  0  0  0
   -0.5813   -6.5821   37.8497 H   0  0  0  0  0  0  0  0  0  0  0  0
   -1.5634   -3.3397   33.3799 H   0  0  0  0  0  0  0  0  0  0  0  0
   -1.0163   -3.7628   34.9804 H   0  0  0  0  0  0  0  0  0  0  0  0
   -0.7786   -1.3567   34.5401 H   0  0  0  0  0  0  0  0  0  0  0  0
    0.3446   -1.6928   33.2399 H   0  0  0  0  0  0  0  0  0  0  0  0
  1  2  1  0
  2  3  1  0
  3  4  2  0
  3  5  1  0
  5  6  1  0
  6  7  1  0
  7  8  1  0
  8  9  1  0
  9 10  1  0
 10 11  1  0
 11 12  1  0
 12 13  2  0
 13 14  1  0
 14 15  2  0
 15 16  1  0
 15 17  1  0
 17 18  1  0
 18 19  1  0
 19 20  1  0
 20 21  2  0
 21 22  1  0
 22 23  2  0
 22 24  1  0
 24 25  1  0
 25 26  1  0
 26 27  2  0
 27 28  1  0
 28 29  1  0
  9 30  1  0
 30 31  1  0
 31  6  1  0
 18  9  1  0
 29 20  1  0
 17 12  1  0
 28 24  2  0
  1 32  1  0
  1 33  1  0
  1 34  1  0
  2 35  1  0
  5 36  1  0
  5 37  1  0
  6 38  1  0
  7 39  1  0
  7 40  1  0
  8 41  1  0
  8 42  1  0
 10 43  1  0
 10 44  1  0
 11 45  1  0
 11 46  1  0
 16 47  1  0
 16 48  1  0
 18 49  1  0
 26 50  1  0
 27 51  1  0
 29 52  1  0
 30 53  1  0
 30 54  1  0
 31 55  1  0
 31 56  1  0
M  END
>  <Energy>  (161) 
-46.426325916002099

>  <compound_id>  (161) 
2438

>  <target_id>  (161) 
1

>  <reference_id>  (161) 
166

>  <inspiration_ids>  (161) 
[166, 41]

>  <energy_score>  (161) 
-95.5096938293607

>  <distance_score>  (161) 
1.4845612479429178

>  <path>  (161) 
/opt/xchem-fragalysis-2/maxwin/BulkDock/SCRATCH/505736/C2438-P166/C2438-P166.minimised.mol

>  <scratch_subdir>  (161) 
/opt/xchem-fragalysis-2/maxwin/BulkDock/SCRATCH/505736/C2438-P166

>  <fragmenstein_runtime>  (161) 
5.458410263061523

>  <fragmenstein_outcome>  (161) 
too moved

>  <fragmenstein_mode>  (161) 
expansion

>  <fragmenstein_error>  (161) 


$$$$
C2438-P41
     RDKit          3D

 56 60  0  0  0  0  0  0  0  0999 V2000
    5.6109   -0.2371   35.1510 C   0  0  0  0  0  0  0  0  0  0  0  0
    4.4242   -0.8540   35.6684 N   0  0  0  0  0  0  0  0  0  0  0  0
    2.9410   -0.4141   35.5795 C   0  0  0  0  0  0  0  0  0  0  0  0
    2.4496    0.4755   35.0068 O   0  0  0  0  0  0  0  0  0  0  0  0
    2.1133   -1.4136   36.3951 C   0  0  0  0  0  0  0  0  0  0  0  0
    1.3474   -2.4537   35.5563 C   0  0  0  0  0  0  0  0  0  0  0  0
    2.2624   -3.4330   34.8131 C   0  0  0  0  0  0  0  0  0  0  0  0
    1.8193   -3.7171   33.3728 C   0  0  0  0  0  0  0  0  0  0  0  0
    0.2965   -4.0306   33.1968 C   0  0  0  0  0  0  0  0  0  0  0  0
   -0.0127   -4.0371   31.6543 C   0  0  0  0  0  0  0  0  0  0  0  0
    0.3247   -5.3494   30.9488 C   0  0  0  0  0  0  0  0  0  0  0  0
   -0.4549   -6.4284   31.5850 C   0  0  0  0  0  0  0  0  0  0  0  0
   -1.0296   -7.4720   31.0353 N   0  0  0  0  0  0  0  0  0  0  0  0
   -1.6407   -8.1714   32.0430 N   0  0  0  0  0  0  0  0  0  0  0  0
   -1.4407   -7.5337   33.1763 C   0  0  0  0  0  0  0  0  0  0  0  0
   -1.8999   -7.8926   34.3889 N   0  0  0  0  0  0  0  0  0  0  0  0
   -0.6945   -6.4125   32.9391 N   0  0  0  0  0  0  0  0  0  0  0  0
    0.0156   -5.4789   33.8260 C   0  0  0  0  0  0  0  0  0  0  0  0
   -0.5463   -5.4697   35.5771 S   0  0  0  0  0  0  0  0  0  0  0  0
    0.5540   -6.6228   36.2993 C   0  0  0  0  0  0  0  0  0  0  0  0
    1.3452   -7.2865   35.5260 N   0  0  0  0  0  0  0  0  0  0  0  0
    2.2170   -8.2079   36.0653 C   0  0  0  0  0  0  0  0  0  0  0  0
    2.9755   -8.8400   35.3392 O   0  0  0  0  0  0  0  0  0  0  0  0
    2.1266   -8.3201   37.5021 C   0  0  0  0  0  0  0  0  0  0  0  0
    3.0879   -9.3448   38.4489 S   0  0  0  0  0  0  0  0  0  0  0  0
    2.2955   -8.8331   39.8872 C   0  0  0  0  0  0  0  0  0  0  0  0
    1.3242   -7.8819   39.6410 C   0  0  0  0  0  0  0  0  0  0  0  0
    1.2461   -7.5927   38.2614 C   0  0  0  0  0  0  0  0  0  0  0  0
    0.4290   -6.7144   37.6574 N   0  0  0  0  0  0  0  0  0  0  0  0
   -0.5128   -2.8437   33.8215 C   0  0  0  0  0  0  0  0  0  0  0  0
    0.3169   -1.8175   34.6128 C   0  0  0  0  0  0  0  0  0  0  0  0
    6.1553    0.2165   35.9823 H   0  0  0  0  0  0  0  0  0  0  0  0
    6.2275   -1.0053   34.6800 H   0  0  0  0  0  0  0  0  0  0  0  0
    5.3355    0.5313   34.4255 H   0  0  0  0  0  0  0  0  0  0  0  0
    4.5104   -1.6230   36.3206 H   0  0  0  0  0  0  0  0  0  0  0  0
    2.7367   -1.9269   37.1358 H   0  0  0  0  0  0  0  0  0  0  0  0
    1.3999   -0.8197   36.9818 H   0  0  0  0  0  0  0  0  0  0  0  0
    0.7782   -3.0350   36.2918 H   0  0  0  0  0  0  0  0  0  0  0  0
    3.2924   -3.0656   34.7722 H   0  0  0  0  0  0  0  0  0  0  0  0
    2.3247   -4.3700   35.3774 H   0  0  0  0  0  0  0  0  0  0  0  0
    2.0797   -2.8396   32.7643 H   0  0  0  0  0  0  0  0  0  0  0  0
    2.4326   -4.5324   32.9680 H   0  0  0  0  0  0  0  0  0  0  0  0
    0.5096   -3.2105   31.1566 H   0  0  0  0  0  0  0  0  0  0  0  0
   -1.0861   -3.8487   31.5058 H   0  0  0  0  0  0  0  0  0  0  0  0
    1.3959   -5.5672   31.0113 H   0  0  0  0  0  0  0  0  0  0  0  0
    0.0637   -5.2691   29.8899 H   0  0  0  0  0  0  0  0  0  0  0  0
   -1.3999   -7.5677   35.2013 H   0  0  0  0  0  0  0  0  0  0  0  0
   -2.0308   -8.9093   34.4703 H   0  0  0  0  0  0  0  0  0  0  0  0
    1.0068   -5.9405   33.8177 H   0  0  0  0  0  0  0  0  0  0  0  0
    2.5853   -9.2557   40.8404 H   0  0  0  0  0  0  0  0  0  0  0  0
    0.7208   -7.4353   40.4217 H   0  0  0  0  0  0  0  0  0  0  0  0
   -0.2526   -6.1292   38.1293 H   0  0  0  0  0  0  0  0  0  0  0  0
   -1.0216   -2.2752   33.0312 H   0  0  0  0  0  0  0  0  0  0  0  0
   -1.3320   -3.1992   34.4492 H   0  0  0  0  0  0  0  0  0  0  0  0
   -0.3663   -1.1763   35.1835 H   0  0  0  0  0  0  0  0  0  0  0  0
    0.8198   -1.1612   33.8924 H   0  0  0  0  0  0  0  0  0  0  0  0
  1  2  1  0
  2  3  1  0
  3  4  2  0
  3  5  1  0
  5  6  1  0
  6  7  1  0
  7  8  1  0
  8  9  1  0
  9 10  1  0
 10 11  1  0
 11 12  1  0
 12 13  2  0
 13 14  1  0
 14 15  2  0
 15 16  1  0
 15 17  1  0
 17 18  1  0
 18 19  1  0
 19 20  1  0
 20 21  2  0
 21 22  1  0
 22 23  2  0
 22 24  1  0
 24 25  1  0
 25 26  1  0
 26 27  2  0
 27 28  1  0
 28 29  1  0
  9 30  1  0
 30 31  1  0
 31  6  1  0
 18  9  1  0
 29 20  1  0
 17 12  1  0
 28 24  2  0
  1 32  1  0
  1 33  1  0
  1 34  1  0
  2 35  1  0
  5 36  1  0
  5 37  1  0
  6 38  1  0
  7 39  1  0
  7 40  1  0
  8 41  1  0
  8 42  1  0
 10 43  1  0
 10 44  1  0
 11 45  1  0
 11 46  1  0
 16 47  1  0
 16 48  1  0
 18 49  1  0
 26 50  1  0
 27 51  1  0
 29 52  1  0
 30 53  1  0
 30 54  1  0
 31 55  1  0
 31 56  1  0
M  END
>  <Energy>  (162) 
-33.560001214750159

>  <compound_id>  (162) 
2438

>  <target_id>  (162) 
1

>  <reference_id>  (162) 
41

>  <inspiration_ids>  (162) 
[166, 41]

>  <energy_score>  (162) 
-61.422191714894694

>  <distance_score>  (162) 
1.5091747299179936

>  <path>  (162) 
/opt/xchem-fragalysis-2/maxwin/BulkDock/SCRATCH/505736/C2438-P41/C2438-P41.minimised.mol

>  <scratch_subdir>  (162) 
/opt/xchem-fragalysis-2/maxwin/BulkDock/SCRATCH/505736/C2438-P41

>  <fragmenstein_runtime>  (162) 
3.1215274333953857

>  <fragmenstein_outcome>  (162) 
too moved

>  <fragmenstein_mode>  (162) 
expansion

>  <fragmenstein_error>  (162) 


$$$$
C2439-P166
     RDKit          3D

 54 58  0  0  0  0  0  0  0  0999 V2000
   -2.3106   -1.2961   37.5052 C   0  0  0  0  0  0  0  0  0  0  0  0
   -0.5906   -1.1845   37.9520 S   0  0  0  0  0  0  0  0  0  0  0  0
    0.1361   -0.5234   36.8943 O   0  0  0  0  0  0  0  0  0  0  0  0
   -0.5235   -0.7247   39.3217 O   0  0  0  0  0  0  0  0  0  0  0  0
   -0.1360   -2.7977   38.0157 N   0  0  0  0  0  0  0  0  0  0  0  0
    0.5193   -3.4866   36.8893 C   0  0  0  0  0  0  0  0  0  0  0  0
    2.0057   -3.1469   36.7964 C   0  0  0  0  0  0  0  0  0  0  0  0
    2.5820   -3.5377   35.4296 C   0  0  0  0  0  0  0  0  0  0  0  0
    1.8302   -4.7281   34.8058 C   0  0  0  0  0  0  0  0  0  0  0  0
    0.3465   -4.3992   34.4392 C   0  0  0  0  0  0  0  0  0  0  0  0
    0.3145   -3.7757   32.9927 C   0  0  0  0  0  0  0  0  0  0  0  0
    0.6522   -4.7732   31.8602 C   0  0  0  0  0  0  0  0  0  0  0  0
   -0.0712   -6.0623   31.9939 C   0  0  0  0  0  0  0  0  0  0  0  0
   -0.3809   -6.9175   31.0429 N   0  0  0  0  0  0  0  0  0  0  0  0
   -1.1699   -7.8907   31.5968 N   0  0  0  0  0  0  0  0  0  0  0  0
   -1.3008   -7.6300   32.8757 C   0  0  0  0  0  0  0  0  0  0  0  0
   -2.0982   -8.2967   33.7324 N   0  0  0  0  0  0  0  0  0  0  0  0
   -0.5785   -6.5031   33.1933 N   0  0  0  0  0  0  0  0  0  0  0  0
   -0.6836   -5.6142   34.3491 C   0  0  0  0  0  0  0  0  0  0  0  0
   -1.1684   -6.3469   35.9120 S   0  0  0  0  0  0  0  0  0  0  0  0
    0.2402   -7.1983   36.4305 C   0  0  0  0  0  0  0  0  0  0  0  0
    1.0563   -7.6732   35.5525 N   0  0  0  0  0  0  0  0  0  0  0  0
    2.2218   -8.2689   35.9992 C   0  0  0  0  0  0  0  0  0  0  0  0
    3.0392   -8.7007   35.1941 O   0  0  0  0  0  0  0  0  0  0  0  0
    2.3635   -8.3069   37.4390 C   0  0  0  0  0  0  0  0  0  0  0  0
    3.6798   -8.9779   38.2704 S   0  0  0  0  0  0  0  0  0  0  0  0
    2.9492   -8.6419   39.7923 C   0  0  0  0  0  0  0  0  0  0  0  0
    1.7359   -7.9971   39.6602 C   0  0  0  0  0  0  0  0  0  0  0  0
    1.4238   -7.8070   38.2988 C   0  0  0  0  0  0  0  0  0  0  0  0
    0.3381   -7.2135   37.7931 N   0  0  0  0  0  0  0  0  0  0  0  0
   -0.1791   -3.3497   35.5162 C   0  0  0  0  0  0  0  0  0  0  0  0
   -2.8189   -1.9549   38.2117 H   0  0  0  0  0  0  0  0  0  0  0  0
   -2.7361   -0.2918   37.5672 H   0  0  0  0  0  0  0  0  0  0  0  0
   -2.4011   -1.6670   36.4847 H   0  0  0  0  0  0  0  0  0  0  0  0
    0.2117   -3.0317   38.9484 H   0  0  0  0  0  0  0  0  0  0  0  0
    0.4710   -4.5348   37.1880 H   0  0  0  0  0  0  0  0  0  0  0  0
    2.5421   -3.6860   37.5881 H   0  0  0  0  0  0  0  0  0  0  0  0
    2.2033   -2.0847   36.9753 H   0  0  0  0  0  0  0  0  0  0  0  0
    3.6429   -3.7883   35.5456 H   0  0  0  0  0  0  0  0  0  0  0  0
    2.5389   -2.6780   34.7506 H   0  0  0  0  0  0  0  0  0  0  0  0
    2.3852   -5.0932   33.9368 H   0  0  0  0  0  0  0  0  0  0  0  0
    1.8919   -5.5152   35.5483 H   0  0  0  0  0  0  0  0  0  0  0  0
   -0.6907   -3.3704   32.8090 H   0  0  0  0  0  0  0  0  0  0  0  0
    0.9992   -2.9215   32.9293 H   0  0  0  0  0  0  0  0  0  0  0  0
    0.4005   -4.3117   30.8981 H   0  0  0  0  0  0  0  0  0  0  0  0
    1.7292   -4.9710   31.8381 H   0  0  0  0  0  0  0  0  0  0  0  0
   -1.5960   -8.8491   34.4418 H   0  0  0  0  0  0  0  0  0  0  0  0
   -2.6433   -8.9967   33.2234 H   0  0  0  0  0  0  0  0  0  0  0  0
   -1.6183   -5.1053   34.0886 H   0  0  0  0  0  0  0  0  0  0  0  0
    3.4533   -8.9289   40.7053 H   0  0  0  0  0  0  0  0  0  0  0  0
    1.1260   -7.6973   40.5028 H   0  0  0  0  0  0  0  0  0  0  0  0
   -0.4390   -6.8592   38.3377 H   0  0  0  0  0  0  0  0  0  0  0  0
   -0.0066   -2.3395   35.1249 H   0  0  0  0  0  0  0  0  0  0  0  0
   -1.2653   -3.4333   35.6281 H   0  0  0  0  0  0  0  0  0  0  0  0
  1  2  1  0
  2  3  2  0
  2  4  2  0
  2  5  1  0
  5  6  1  0
  6  7  1  0
  7  8  1  0
  8  9  1  0
  9 10  1  0
 10 11  1  0
 11 12  1  0
 12 13  1  0
 13 14  2  0
 14 15  1  0
 15 16  2  0
 16 17  1  0
 16 18  1  0
 18 19  1  0
 19 20  1  0
 20 21  1  0
 21 22  2  0
 22 23  1  0
 23 24  2  0
 23 25  1  0
 25 26  1  0
 26 27  1  0
 27 28  2  0
 28 29  1  0
 29 30  1  0
 10 31  1  0
 31  6  1  0
 19 10  1  0
 30 21  1  0
 18 13  1  0
 29 25  2  0
  1 32  1  0
  1 33  1  0
  1 34  1  0
  5 35  1  0
  6 36  1  0
  7 37  1  0
  7 38  1  0
  8 39  1  0
  8 40  1  0
  9 41  1  0
  9 42  1  0
 11 43  1  0
 11 44  1  0
 12 45  1  0
 12 46  1  0
 17 47  1  0
 17 48  1  0
 19 49  1  0
 27 50  1  0
 28 51  1  0
 30 52  1  0
 31 53  1  0
 31 54  1  0
M  END
>  <Energy>  (163) 
-99.808716804221788

>  <compound_id>  (163) 
2439

>  <target_id>  (163) 
1

>  <reference_id>  (163) 
166

>  <inspiration_ids>  (163) 
[166, 56]

>  <energy_score>  (163) 
-109.16455578024328

>  <distance_score>  (163) 
1.3189530397011784

>  <path>  (163) 
/opt/xchem-fragalysis-2/maxwin/BulkDock/SCRATCH/505736/C2439-P166/C2439-P166.minimised.mol

>  <scratch_subdir>  (163) 
/opt/xchem-fragalysis-2/maxwin/BulkDock/SCRATCH/505736/C2439-P166

>  <fragmenstein_runtime>  (163) 
3.3372039794921875

>  <fragmenstein_outcome>  (163) 
too moved

>  <fragmenstein_mode>  (163) 
expansion

>  <fragmenstein_error>  (163) 


$$$$
C2439-P56
     RDKit          3D

 54 58  0  0  0  0  0  0  0  0999 V2000
    4.5210   -1.1654   36.7871 C   0  0  0  0  0  0  0  0  0  0  0  0
    5.2694   -2.7017   36.2901 S   0  0  0  0  0  0  0  0  0  0  0  0
    6.0434   -2.4740   35.0879 O   0  0  0  0  0  0  0  0  0  0  0  0
    5.8899   -3.2680   37.4720 O   0  0  0  0  0  0  0  0  0  0  0  0
    3.9242   -3.6490   35.9079 N   0  0  0  0  0  0  0  0  0  0  0  0
    3.5938   -3.9207   34.4794 C   0  0  0  0  0  0  0  0  0  0  0  0
    3.1709   -2.6481   33.7586 C   0  0  0  0  0  0  0  0  0  0  0  0
    1.7585   -2.2361   34.1059 C   0  0  0  0  0  0  0  0  0  0  0  0
    0.7009   -3.3038   33.8461 C   0  0  0  0  0  0  0  0  0  0  0  0
    1.1802   -4.7795   33.6204 C   0  0  0  0  0  0  0  0  0  0  0  0
    1.4921   -4.9540   32.0815 C   0  0  0  0  0  0  0  0  0  0  0  0
    0.2733   -5.1515   31.1899 C   0  0  0  0  0  0  0  0  0  0  0  0
   -0.4962   -6.3140   31.6596 C   0  0  0  0  0  0  0  0  0  0  0  0
   -1.1904   -7.1692   30.9429 N   0  0  0  0  0  0  0  0  0  0  0  0
   -1.8049   -8.0287   31.8108 N   0  0  0  0  0  0  0  0  0  0  0  0
   -1.4836   -7.6781   33.0366 C   0  0  0  0  0  0  0  0  0  0  0  0
   -1.9703   -8.2420   34.1607 N   0  0  0  0  0  0  0  0  0  0  0  0
   -0.6032   -6.6141   32.9947 N   0  0  0  0  0  0  0  0  0  0  0  0
   -0.0746   -5.7324   34.0594 C   0  0  0  0  0  0  0  0  0  0  0  0
    0.0326   -6.6253   35.6554 S   0  0  0  0  0  0  0  0  0  0  0  0
    0.0167   -5.3592   36.8605 C   0  0  0  0  0  0  0  0  0  0  0  0
    0.8700   -4.4063   36.7340 N   0  0  0  0  0  0  0  0  0  0  0  0
    1.1131   -3.5784   37.8091 C   0  0  0  0  0  0  0  0  0  0  0  0
    1.7552   -2.5436   37.7032 O   0  0  0  0  0  0  0  0  0  0  0  0
    0.5537   -4.0676   39.0441 C   0  0  0  0  0  0  0  0  0  0  0  0
    1.0190   -3.5415   40.5837 S   0  0  0  0  0  0  0  0  0  0  0  0
   -0.0827   -4.6255   41.3324 C   0  0  0  0  0  0  0  0  0  0  0  0
   -0.7957   -5.3649   40.4088 C   0  0  0  0  0  0  0  0  0  0  0  0
   -0.4001   -5.0467   39.0896 C   0  0  0  0  0  0  0  0  0  0  0  0
   -0.7992   -5.6132   37.9332 N   0  0  0  0  0  0  0  0  0  0  0  0
    2.5399   -5.0555   34.3786 C   0  0  0  0  0  0  0  0  0  0  0  0
    3.9633   -1.3231   37.7102 H   0  0  0  0  0  0  0  0  0  0  0  0
    5.3269   -0.4509   36.9717 H   0  0  0  0  0  0  0  0  0  0  0  0
    3.8773   -0.7877   35.9941 H   0  0  0  0  0  0  0  0  0  0  0  0
    3.9027   -4.4609   36.5552 H   0  0  0  0  0  0  0  0  0  0  0  0
    4.5128   -4.3014   34.0139 H   0  0  0  0  0  0  0  0  0  0  0  0
    3.2602   -2.7904   32.6777 H   0  0  0  0  0  0  0  0  0  0  0  0
    3.8436   -1.8135   33.9736 H   0  0  0  0  0  0  0  0  0  0  0  0
    1.4971   -1.3297   33.5458 H   0  0  0  0  0  0  0  0  0  0  0  0
    1.7193   -1.9442   35.1609 H   0  0  0  0  0  0  0  0  0  0  0  0
   -0.0059   -3.2444   34.6817 H   0  0  0  0  0  0  0  0  0  0  0  0
    0.1029   -2.9840   32.9834 H   0  0  0  0  0  0  0  0  0  0  0  0
    2.0495   -4.0992   31.6915 H   0  0  0  0  0  0  0  0  0  0  0  0
    2.1461   -5.8214   31.9349 H   0  0  0  0  0  0  0  0  0  0  0  0
   -0.3643   -4.2615   31.1870 H   0  0  0  0  0  0  0  0  0  0  0  0
    0.5998   -5.3150   30.1566 H   0  0  0  0  0  0  0  0  0  0  0  0
   -1.3677   -8.2855   34.9787 H   0  0  0  0  0  0  0  0  0  0  0  0
   -2.4239   -9.1433   34.0175 H   0  0  0  0  0  0  0  0  0  0  0  0
   -0.9287   -5.0668   34.2046 H   0  0  0  0  0  0  0  0  0  0  0  0
   -0.1625   -4.6548   42.4108 H   0  0  0  0  0  0  0  0  0  0  0  0
   -1.5375   -6.0933   40.7025 H   0  0  0  0  0  0  0  0  0  0  0  0
   -1.3742   -6.4417   37.8891 H   0  0  0  0  0  0  0  0  0  0  0  0
    3.0480   -5.8787   33.8680 H   0  0  0  0  0  0  0  0  0  0  0  0
    2.3919   -5.4725   35.3689 H   0  0  0  0  0  0  0  0  0  0  0  0
  1  2  1  0
  2  3  2  0
  2  4  2  0
  2  5  1  0
  5  6  1  0
  6  7  1  0
  7  8  1  0
  8  9  1  0
  9 10  1  0
 10 11  1  0
 11 12  1  0
 12 13  1  0
 13 14  2  0
 14 15  1  0
 15 16  2  0
 16 17  1  0
 16 18  1  0
 18 19  1  0
 19 20  1  0
 20 21  1  0
 21 22  2  0
 22 23  1  0
 23 24  2  0
 23 25  1  0
 25 26  1  0
 26 27  1  0
 27 28  2  0
 28 29  1  0
 29 30  1  0
 10 31  1  0
 31  6  1  0
 19 10  1  0
 30 21  1  0
 18 13  1  0
 29 25  2  0
  1 32  1  0
  1 33  1  0
  1 34  1  0
  5 35  1  0
  6 36  1  0
  7 37  1  0
  7 38  1  0
  8 39  1  0
  8 40  1  0
  9 41  1  0
  9 42  1  0
 11 43  1  0
 11 44  1  0
 12 45  1  0
 12 46  1  0
 17 47  1  0
 17 48  1  0
 19 49  1  0
 27 50  1  0
 28 51  1  0
 30 52  1  0
 31 53  1  0
 31 54  1  0
M  END
>  <Energy>  (164) 
-94.307145291318648

>  <compound_id>  (164) 
2439

>  <target_id>  (164) 
1

>  <reference_id>  (164) 
56

>  <inspiration_ids>  (164) 
[166, 56]

>  <energy_score>  (164) 
-71.02899897085453

>  <distance_score>  (164) 
3.3817417640371334

>  <path>  (164) 
/opt/xchem-fragalysis-2/maxwin/BulkDock/SCRATCH/505736/C2439-P56/C2439-P56.minimised.mol

>  <scratch_subdir>  (164) 
/opt/xchem-fragalysis-2/maxwin/BulkDock/SCRATCH/505736/C2439-P56

>  <fragmenstein_runtime>  (164) 
5.727956533432007

>  <fragmenstein_outcome>  (164) 
too moved

>  <fragmenstein_mode>  (164) 
expansion

>  <fragmenstein_error>  (164) 


$$$$
C2441-P166
     RDKit          3D

 54 58  0  0  0  0  0  0  0  0999 V2000
    1.6127   -0.2806   35.9903 C   0  0  0  0  0  0  0  0  0  0  0  0
    1.9913   -1.2891   35.0595 O   0  0  0  0  0  0  0  0  0  0  0  0
    1.0958   -1.3771   33.9310 C   0  0  0  0  0  0  0  0  0  0  0  0
    1.8376   -2.1746   32.8528 C   0  0  0  0  0  0  0  0  0  0  0  0
    1.6344   -3.6761   33.0355 C   0  0  0  0  0  0  0  0  0  0  0  0
    0.1505   -4.1189   32.8120 C   0  0  0  0  0  0  0  0  0  0  0  0
   -0.0908   -4.2830   31.2700 C   0  0  0  0  0  0  0  0  0  0  0  0
    0.2455   -5.6624   30.7265 C   0  0  0  0  0  0  0  0  0  0  0  0
   -0.5638   -6.6558   31.4537 C   0  0  0  0  0  0  0  0  0  0  0  0
   -1.2155   -7.6921   30.9854 N   0  0  0  0  0  0  0  0  0  0  0  0
   -1.7825   -8.3246   32.0601 N   0  0  0  0  0  0  0  0  0  0  0  0
   -1.4512   -7.6751   33.1555 C   0  0  0  0  0  0  0  0  0  0  0  0
   -1.7139   -8.0613   34.4210 N   0  0  0  0  0  0  0  0  0  0  0  0
   -0.7474   -6.5513   32.8129 N   0  0  0  0  0  0  0  0  0  0  0  0
   -0.0398   -5.5210   33.5843 C   0  0  0  0  0  0  0  0  0  0  0  0
   -0.5726   -5.3277   35.3298 S   0  0  0  0  0  0  0  0  0  0  0  0
    0.4934   -6.4546   36.1447 C   0  0  0  0  0  0  0  0  0  0  0  0
    1.3306   -7.1307   35.4295 N   0  0  0  0  0  0  0  0  0  0  0  0
    2.2033   -8.0046   36.0424 C   0  0  0  0  0  0  0  0  0  0  0  0
    2.9678   -8.6828   35.3642 O   0  0  0  0  0  0  0  0  0  0  0  0
    2.1020   -8.0213   37.4820 C   0  0  0  0  0  0  0  0  0  0  0  0
    3.1205   -8.9033   38.5115 S   0  0  0  0  0  0  0  0  0  0  0  0
    2.2409   -8.3859   39.8955 C   0  0  0  0  0  0  0  0  0  0  0  0
    1.2159   -7.5180   39.5705 C   0  0  0  0  0  0  0  0  0  0  0  0
    1.1614   -7.3048   38.1753 C   0  0  0  0  0  0  0  0  0  0  0  0
    0.3172   -6.5048   37.5009 N   0  0  0  0  0  0  0  0  0  0  0  0
   -0.7979   -2.9571   33.2565 C   0  0  0  0  0  0  0  0  0  0  0  0
   -0.2438   -2.0355   34.3557 C   0  0  0  0  0  0  0  0  0  0  0  0
   -1.1589   -0.9628   34.6492 O   0  0  0  0  0  0  0  0  0  0  0  0
   -2.3860   -1.3868   35.2295 C   0  0  0  0  0  0  0  0  0  0  0  0
    1.5089    0.6892   35.4945 H   0  0  0  0  0  0  0  0  0  0  0  0
    2.4032   -0.2009   36.7417 H   0  0  0  0  0  0  0  0  0  0  0  0
    0.6855   -0.5495   36.5026 H   0  0  0  0  0  0  0  0  0  0  0  0
    0.9352   -0.3609   33.5478 H   0  0  0  0  0  0  0  0  0  0  0  0
    1.4818   -1.8697   31.8624 H   0  0  0  0  0  0  0  0  0  0  0  0
    2.9107   -1.9513   32.8886 H   0  0  0  0  0  0  0  0  0  0  0  0
    2.2971   -4.2191   32.3506 H   0  0  0  0  0  0  0  0  0  0  0  0
    1.9643   -3.9403   34.0489 H   0  0  0  0  0  0  0  0  0  0  0  0
   -1.1509   -4.0902   31.0550 H   0  0  0  0  0  0  0  0  0  0  0  0
    0.4675   -3.5286   30.7035 H   0  0  0  0  0  0  0  0  0  0  0  0
    1.3117   -5.8789   30.8437 H   0  0  0  0  0  0  0  0  0  0  0  0
    0.0169   -5.6967   29.6600 H   0  0  0  0  0  0  0  0  0  0  0  0
   -0.8957   -8.1598   35.0142 H   0  0  0  0  0  0  0  0  0  0  0  0
   -2.1136   -9.0123   34.4400 H   0  0  0  0  0  0  0  0  0  0  0  0
    0.9729   -5.9382   33.5879 H   0  0  0  0  0  0  0  0  0  0  0  0
    2.5269   -8.7363   40.8779 H   0  0  0  0  0  0  0  0  0  0  0  0
    0.5594   -7.0721   40.3069 H   0  0  0  0  0  0  0  0  0  0  0  0
   -0.4076   -5.9334   37.9208 H   0  0  0  0  0  0  0  0  0  0  0  0
   -1.7703   -3.3695   33.5303 H   0  0  0  0  0  0  0  0  0  0  0  0
   -1.0255   -2.3053   32.3996 H   0  0  0  0  0  0  0  0  0  0  0  0
   -0.0822   -2.5868   35.2865 H   0  0  0  0  0  0  0  0  0  0  0  0
   -2.2198   -2.1193   36.0249 H   0  0  0  0  0  0  0  0  0  0  0  0
   -3.0486   -1.7926   34.4617 H   0  0  0  0  0  0  0  0  0  0  0  0
   -2.8757   -0.5101   35.6623 H   0  0  0  0  0  0  0  0  0  0  0  0
  1  2  1  0
  2  3  1  0
  3  4  1  0
  4  5  1  0
  5  6  1  0
  6  7  1  0
  7  8  1  0
  8  9  1  0
  9 10  2  0
 10 11  1  0
 11 12  2  0
 12 13  1  0
 12 14  1  0
 14 15  1  0
 15 16  1  0
 16 17  1  0
 17 18  2  0
 18 19  1  0
 19 20  2  0
 19 21  1  0
 21 22  1  0
 22 23  1  0
 23 24  2  0
 24 25  1  0
 25 26  1  0
  6 27  1  0
 27 28  1  0
 28 29  1  0
 29 30  1  0
 28  3  1  0
 15  6  1  0
 26 17  1  0
 14  9  1  0
 25 21  2  0
  1 31  1  0
  1 32  1  0
  1 33  1  0
  3 34  1  0
  4 35  1  0
  4 36  1  0
  5 37  1  0
  5 38  1  0
  7 39  1  0
  7 40  1  0
  8 41  1  0
  8 42  1  0
 13 43  1  0
 13 44  1  0
 15 45  1  0
 23 46  1  0
 24 47  1  0
 26 48  1  0
 27 49  1  0
 27 50  1  0
 28 51  1  0
 30 52  1  0
 30 53  1  0
 30 54  1  0
M  END
>  <Energy>  (165) 
-5.244946013569491

>  <compound_id>  (165) 
2441

>  <target_id>  (165) 
1

>  <reference_id>  (165) 
166

>  <inspiration_ids>  (165) 
[166, 105]

>  <energy_score>  (165) 
-128.51620399179657

>  <distance_score>  (165) 
0.4887031915758263

>  <path>  (165) 
/opt/xchem-fragalysis-2/maxwin/BulkDock/SCRATCH/505736/C2441-P166/C2441-P166.minimised.mol

>  <scratch_subdir>  (165) 
/opt/xchem-fragalysis-2/maxwin/BulkDock/SCRATCH/505736/C2441-P166

>  <fragmenstein_runtime>  (165) 
1.7485415935516357

>  <fragmenstein_outcome>  (165) 
acceptable

>  <fragmenstein_mode>  (165) 
expansion

>  <fragmenstein_error>  (165) 


$$$$
C2441-P105
     RDKit          3D

 54 58  0  0  0  0  0  0  0  0999 V2000
   -0.1018    0.3571   35.3181 C   0  0  0  0  0  0  0  0  0  0  0  0
    0.8018   -0.6509   34.8771 O   0  0  0  0  0  0  0  0  0  0  0  0
    0.5211   -1.1096   33.5373 C   0  0  0  0  0  0  0  0  0  0  0  0
    1.7692   -1.8609   33.0674 C   0  0  0  0  0  0  0  0  0  0  0  0
    1.7187   -3.3251   33.4874 C   0  0  0  0  0  0  0  0  0  0  0  0
    0.5694   -4.0987   32.7687 C   0  0  0  0  0  0  0  0  0  0  0  0
    1.1253   -4.5409   31.3757 C   0  0  0  0  0  0  0  0  0  0  0  0
    0.1532   -5.3850   30.5641 C   0  0  0  0  0  0  0  0  0  0  0  0
   -0.5221   -6.4169   31.3802 C   0  0  0  0  0  0  0  0  0  0  0  0
   -1.1971   -7.4564   30.9413 N   0  0  0  0  0  0  0  0  0  0  0  0
   -1.6588   -8.1375   32.0341 N   0  0  0  0  0  0  0  0  0  0  0  0
   -1.2484   -7.5125   33.1140 C   0  0  0  0  0  0  0  0  0  0  0  0
   -1.4566   -7.8974   34.3878 N   0  0  0  0  0  0  0  0  0  0  0  0
   -0.5472   -6.3916   32.7563 N   0  0  0  0  0  0  0  0  0  0  0  0
    0.2436   -5.4387   33.5473 C   0  0  0  0  0  0  0  0  0  0  0  0
   -0.3384   -5.1555   35.2726 S   0  0  0  0  0  0  0  0  0  0  0  0
    0.6205   -6.3588   36.1251 C   0  0  0  0  0  0  0  0  0  0  0  0
    1.4103   -7.1057   35.4247 N   0  0  0  0  0  0  0  0  0  0  0  0
    2.1971   -8.0561   36.0361 C   0  0  0  0  0  0  0  0  0  0  0  0
    2.9693   -8.7390   35.3720 O   0  0  0  0  0  0  0  0  0  0  0  0
    1.9916   -8.1448   37.4604 C   0  0  0  0  0  0  0  0  0  0  0  0
    2.7918   -9.2412   38.4748 S   0  0  0  0  0  0  0  0  0  0  0  0
    1.9477   -8.6469   39.8509 C   0  0  0  0  0  0  0  0  0  0  0  0
    1.0762   -7.6228   39.5305 C   0  0  0  0  0  0  0  0  0  0  0  0
    1.1164   -7.3412   38.1464 C   0  0  0  0  0  0  0  0  0  0  0  0
    0.4135   -6.4082   37.4772 N   0  0  0  0  0  0  0  0  0  0  0  0
   -0.6594   -3.1673   32.5490 C   0  0  0  0  0  0  0  0  0  0  0  0
   -0.7641   -1.9803   33.5211 C   0  0  0  0  0  0  0  0  0  0  0  0
   -1.8299   -1.0996   33.1195 O   0  0  0  0  0  0  0  0  0  0  0  0
   -3.1344   -1.5922   33.3895 C   0  0  0  0  0  0  0  0  0  0  0  0
   -0.1323    1.1914   34.6109 H   0  0  0  0  0  0  0  0  0  0  0  0
    0.2561    0.7336   36.2804 H   0  0  0  0  0  0  0  0  0  0  0  0
   -1.1034   -0.0537   35.4679 H   0  0  0  0  0  0  0  0  0  0  0  0
    0.4072   -0.2232   32.8993 H   0  0  0  0  0  0  0  0  0  0  0  0
    1.8518   -1.7899   31.9772 H   0  0  0  0  0  0  0  0  0  0  0  0
    2.6710   -1.3976   33.4857 H   0  0  0  0  0  0  0  0  0  0  0  0
    2.6858   -3.7979   33.2748 H   0  0  0  0  0  0  0  0  0  0  0  0
    1.6115   -3.3561   34.5764 H   0  0  0  0  0  0  0  0  0  0  0  0
    1.4229   -3.6729   30.7751 H   0  0  0  0  0  0  0  0  0  0  0  0
    2.0436   -5.1273   31.5255 H   0  0  0  0  0  0  0  0  0  0  0  0
    0.7146   -5.8674   29.7604 H   0  0  0  0  0  0  0  0  0  0  0  0
   -0.5941   -4.7376   30.0962 H   0  0  0  0  0  0  0  0  0  0  0  0
   -0.6006   -8.0306   34.9156 H   0  0  0  0  0  0  0  0  0  0  0  0
   -1.8914   -8.8309   34.4260 H   0  0  0  0  0  0  0  0  0  0  0  0
    1.2202   -5.9320   33.5883 H   0  0  0  0  0  0  0  0  0  0  0  0
    2.1336   -9.0803   40.8249 H   0  0  0  0  0  0  0  0  0  0  0  0
    0.4578   -7.1199   40.2638 H   0  0  0  0  0  0  0  0  0  0  0  0
   -0.2665   -5.7780   37.8887 H   0  0  0  0  0  0  0  0  0  0  0  0
   -1.5807   -3.7539   32.5798 H   0  0  0  0  0  0  0  0  0  0  0  0
   -0.6377   -2.7469   31.5337 H   0  0  0  0  0  0  0  0  0  0  0  0
   -0.9754   -2.3366   34.5354 H   0  0  0  0  0  0  0  0  0  0  0  0
   -3.2353   -1.8661   34.4433 H   0  0  0  0  0  0  0  0  0  0  0  0
   -3.3721   -2.4386   32.7411 H   0  0  0  0  0  0  0  0  0  0  0  0
   -3.8489   -0.7932   33.1726 H   0  0  0  0  0  0  0  0  0  0  0  0
  1  2  1  0
  2  3  1  0
  3  4  1  0
  4  5  1  0
  5  6  1  0
  6  7  1  0
  7  8  1  0
  8  9  1  0
  9 10  2  0
 10 11  1  0
 11 12  2  0
 12 13  1  0
 12 14  1  0
 14 15  1  0
 15 16  1  0
 16 17  1  0
 17 18  2  0
 18 19  1  0
 19 20  2  0
 19 21  1  0
 21 22  1  0
 22 23  1  0
 23 24  2  0
 24 25  1  0
 25 26  1  0
  6 27  1  0
 27 28  1  0
 28 29  1  0
 29 30  1  0
 28  3  1  0
 15  6  1  0
 26 17  1  0
 14  9  1  0
 25 21  2  0
  1 31  1  0
  1 32  1  0
  1 33  1  0
  3 34  1  0
  4 35  1  0
  4 36  1  0
  5 37  1  0
  5 38  1  0
  7 39  1  0
  7 40  1  0
  8 41  1  0
  8 42  1  0
 13 43  1  0
 13 44  1  0
 15 45  1  0
 23 46  1  0
 24 47  1  0
 26 48  1  0
 27 49  1  0
 27 50  1  0
 28 51  1  0
 30 52  1  0
 30 53  1  0
 30 54  1  0
M  END
>  <Energy>  (166) 
-11.978163794482972

>  <compound_id>  (166) 
2441

>  <target_id>  (166) 
1

>  <reference_id>  (166) 
105

>  <inspiration_ids>  (166) 
[166, 105]

>  <energy_score>  (166) 
-135.24942177271157

>  <distance_score>  (166) 
0.5554852964626117

>  <path>  (166) 
/opt/xchem-fragalysis-2/maxwin/BulkDock/SCRATCH/505736/C2441-P105/C2441-P105.minimised.mol

>  <scratch_subdir>  (166) 
/opt/xchem-fragalysis-2/maxwin/BulkDock/SCRATCH/505736/C2441-P105

>  <fragmenstein_runtime>  (166) 
1.6491022109985352

>  <fragmenstein_outcome>  (166) 
acceptable

>  <fragmenstein_mode>  (166) 
expansion

>  <fragmenstein_error>  (166) 


$$$$
C2442-P166
     RDKit          3D

 47 51  0  0  0  0  0  0  0  0999 V2000
    3.6443   -4.6423   33.9230 C   0  0  0  0  0  0  0  0  0  0  0  0
    2.4648   -3.7108   34.0107 N   0  0  0  0  0  0  0  0  0  0  0  0
    3.5390   -2.8299   34.6409 C   0  0  0  0  0  0  0  0  0  0  0  0
    3.1271   -1.3524   34.6807 C   0  0  0  0  0  0  0  0  0  0  0  0
    4.1332   -0.3676   34.6192 C   0  0  0  0  0  0  0  0  0  0  0  0
    3.8230    0.9916   34.7057 C   0  0  0  0  0  0  0  0  0  0  0  0
    2.5045    1.3935   34.8813 C   0  0  0  0  0  0  0  0  0  0  0  0
    1.4990    0.4355   34.9550 C   0  0  0  0  0  0  0  0  0  0  0  0
    1.8049   -0.9300   34.8433 C   0  0  0  0  0  0  0  0  0  0  0  0
    1.7600   -3.6004   32.6906 C   0  0  0  0  0  0  0  0  0  0  0  0
    1.9281   -2.8537   31.7989 O   0  0  0  0  0  0  0  0  0  0  0  0
    0.7433   -4.7338   32.5130 C   0  0  0  0  0  0  0  0  0  0  0  0
    0.6723   -5.1685   31.1020 C   0  0  0  0  0  0  0  0  0  0  0  0
   -0.0275   -6.2320   30.6962 C   0  0  0  0  0  0  0  0  0  0  0  0
   -0.7456   -6.9863   31.6342 C   0  0  0  0  0  0  0  0  0  0  0  0
   -1.4845   -8.0605   31.4946 N   0  0  0  0  0  0  0  0  0  0  0  0
   -1.9605   -8.3842   32.7335 N   0  0  0  0  0  0  0  0  0  0  0  0
   -1.5029   -7.4995   33.5913 C   0  0  0  0  0  0  0  0  0  0  0  0
   -0.7371   -6.5538   32.9517 N   0  0  0  0  0  0  0  0  0  0  0  0
   -0.0305   -5.4089   33.4110 C   0  0  0  0  0  0  0  0  0  0  0  0
   -0.2345   -4.9588   35.0869 S   0  0  0  0  0  0  0  0  0  0  0  0
    0.6554   -6.2279   35.9251 C   0  0  0  0  0  0  0  0  0  0  0  0
    1.4793   -6.9474   35.2337 N   0  0  0  0  0  0  0  0  0  0  0  0
    2.2261   -7.9148   35.8752 C   0  0  0  0  0  0  0  0  0  0  0  0
    2.9537   -8.6584   35.2259 O   0  0  0  0  0  0  0  0  0  0  0  0
    2.0753   -7.9248   37.3109 C   0  0  0  0  0  0  0  0  0  0  0  0
    3.0226   -8.8429   38.3767 S   0  0  0  0  0  0  0  0  0  0  0  0
    2.1195   -8.2861   39.7296 C   0  0  0  0  0  0  0  0  0  0  0  0
    1.1514   -7.3681   39.3693 C   0  0  0  0  0  0  0  0  0  0  0  0
    1.1545   -7.1561   37.9721 C   0  0  0  0  0  0  0  0  0  0  0  0
    0.3843   -6.3081   37.2675 N   0  0  0  0  0  0  0  0  0  0  0  0
    4.1164   -4.9276   34.8766 H   0  0  0  0  0  0  0  0  0  0  0  0
    4.3457   -4.4006   33.1080 H   0  0  0  0  0  0  0  0  0  0  0  0
    3.2144   -5.5918   33.5740 H   0  0  0  0  0  0  0  0  0  0  0  0
    4.4883   -2.7653   34.0796 H   0  0  0  0  0  0  0  0  0  0  0  0
    3.6920   -3.1184   35.6929 H   0  0  0  0  0  0  0  0  0  0  0  0
    5.1769   -0.6510   34.4998 H   0  0  0  0  0  0  0  0  0  0  0  0
    4.6137    1.7346   34.6445 H   0  0  0  0  0  0  0  0  0  0  0  0
    2.2590    2.4493   34.9539 H   0  0  0  0  0  0  0  0  0  0  0  0
    0.4643    0.7435   35.0852 H   0  0  0  0  0  0  0  0  0  0  0  0
    0.9965   -1.6541   34.9076 H   0  0  0  0  0  0  0  0  0  0  0  0
    1.2047   -4.5772   30.3578 H   0  0  0  0  0  0  0  0  0  0  0  0
   -0.0757   -6.5126   29.6604 H   0  0  0  0  0  0  0  0  0  0  0  0
   -1.6897   -7.5146   34.6543 H   0  0  0  0  0  0  0  0  0  0  0  0
    2.3523   -8.6510   40.7208 H   0  0  0  0  0  0  0  0  0  0  0  0
    0.4939   -6.8883   40.0834 H   0  0  0  0  0  0  0  0  0  0  0  0
   -0.2673   -5.6477   37.6759 H   0  0  0  0  0  0  0  0  0  0  0  0
  1  2  1  0
  2  3  1  0
  3  4  1  0
  4  5  2  0
  5  6  1  0
  6  7  2  0
  7  8  1  0
  8  9  2  0
  2 10  1  0
 10 11  2  0
 10 12  1  0
 12 13  1  0
 13 14  2  0
 14 15  1  0
 15 16  2  0
 16 17  1  0
 17 18  2  0
 18 19  1  0
 19 20  1  0
 20 21  1  0
 21 22  1  0
 22 23  2  0
 23 24  1  0
 24 25  2  0
 24 26  1  0
 26 27  1  0
 27 28  1  0
 28 29  2  0
 29 30  1  0
 30 31  1  0
  9  4  1  0
 20 12  2  0
 31 22  1  0
 19 15  1  0
 30 26  2  0
  1 32  1  0
  1 33  1  0
  1 34  1  0
  3 35  1  0
  3 36  1  0
  5 37  1  0
  6 38  1  0
  7 39  1  0
  8 40  1  0
  9 41  1  0
 13 42  1  0
 14 43  1  0
 18 44  1  0
 28 45  1  0
 29 46  1  0
 31 47  1  0
M  END
>  <Energy>  (167) 
73.736868641003937

>  <compound_id>  (167) 
2442

>  <target_id>  (167) 
1

>  <reference_id>  (167) 
166

>  <inspiration_ids>  (167) 
[166, 128]

>  <energy_score>  (167) 
40.96465505808376

>  <distance_score>  (167) 
0.7412131944771106

>  <path>  (167) 
/opt/xchem-fragalysis-2/maxwin/BulkDock/SCRATCH/505736/C2442-P166/C2442-P166.minimised.mol

>  <scratch_subdir>  (167) 
/opt/xchem-fragalysis-2/maxwin/BulkDock/SCRATCH/505736/C2442-P166

>  <fragmenstein_runtime>  (167) 
2.289694309234619

>  <fragmenstein_outcome>  (167) 
too contorted

>  <fragmenstein_mode>  (167) 
expansion

>  <fragmenstein_error>  (167) 


$$$$
C2442-P128
     RDKit          3D

 47 51  0  0  0  0  0  0  0  0999 V2000
    3.7504   -4.5281   33.8828 C   0  0  0  0  0  0  0  0  0  0  0  0
    2.5566   -3.6188   34.0055 N   0  0  0  0  0  0  0  0  0  0  0  0
    3.6164   -2.7470   34.6691 C   0  0  0  0  0  0  0  0  0  0  0  0
    3.1895   -1.2741   34.7228 C   0  0  0  0  0  0  0  0  0  0  0  0
    4.1845   -0.2778   34.6737 C   0  0  0  0  0  0  0  0  0  0  0  0
    3.8570    1.0772   34.7599 C   0  0  0  0  0  0  0  0  0  0  0  0
    2.5321    1.4631   34.9227 C   0  0  0  0  0  0  0  0  0  0  0  0
    1.5371    0.4937   34.9847 C   0  0  0  0  0  0  0  0  0  0  0  0
    1.8605   -0.8674   34.8744 C   0  0  0  0  0  0  0  0  0  0  0  0
    1.8503   -3.4687   32.6905 C   0  0  0  0  0  0  0  0  0  0  0  0
    2.0069   -2.6859   31.8281 O   0  0  0  0  0  0  0  0  0  0  0  0
    0.8540   -4.6092   32.4733 C   0  0  0  0  0  0  0  0  0  0  0  0
    0.8089   -5.0073   31.0522 C   0  0  0  0  0  0  0  0  0  0  0  0
    0.1239   -6.0640   30.6091 C   0  0  0  0  0  0  0  0  0  0  0  0
   -0.5963   -6.8514   31.5169 C   0  0  0  0  0  0  0  0  0  0  0  0
   -1.3259   -7.9256   31.3369 N   0  0  0  0  0  0  0  0  0  0  0  0
   -1.7940   -8.2976   32.5627 N   0  0  0  0  0  0  0  0  0  0  0  0
   -1.3488   -7.4385   33.4532 C   0  0  0  0  0  0  0  0  0  0  0  0
   -0.6034   -6.4583   32.8471 N   0  0  0  0  0  0  0  0  0  0  0  0
    0.0765   -5.3147   33.3438 C   0  0  0  0  0  0  0  0  0  0  0  0
   -0.1738   -4.8953   35.0205 S   0  0  0  0  0  0  0  0  0  0  0  0
    0.7411   -6.1394   35.8633 C   0  0  0  0  0  0  0  0  0  0  0  0
    1.6299   -6.7962   35.1906 N   0  0  0  0  0  0  0  0  0  0  0  0
    2.4133   -7.7243   35.8434 C   0  0  0  0  0  0  0  0  0  0  0  0
    3.1827   -8.4390   35.2081 O   0  0  0  0  0  0  0  0  0  0  0  0
    2.2370   -7.7396   37.2794 C   0  0  0  0  0  0  0  0  0  0  0  0
    3.2334   -8.5708   38.3743 S   0  0  0  0  0  0  0  0  0  0  0  0
    2.2386   -8.1108   39.6989 C   0  0  0  0  0  0  0  0  0  0  0  0
    1.2082   -7.2754   39.3121 C   0  0  0  0  0  0  0  0  0  0  0  0
    1.2382   -7.0517   37.9168 C   0  0  0  0  0  0  0  0  0  0  0  0
    0.4252   -6.2622   37.1928 N   0  0  0  0  0  0  0  0  0  0  0  0
    4.2277   -4.8394   34.8257 H   0  0  0  0  0  0  0  0  0  0  0  0
    4.4466   -4.2441   33.0769 H   0  0  0  0  0  0  0  0  0  0  0  0
    3.3376   -5.4715   33.4972 H   0  0  0  0  0  0  0  0  0  0  0  0
    4.5794   -2.6636   34.1335 H   0  0  0  0  0  0  0  0  0  0  0  0
    3.7500   -3.0574   35.7174 H   0  0  0  0  0  0  0  0  0  0  0  0
    5.2324   -0.5483   34.5620 H   0  0  0  0  0  0  0  0  0  0  0  0
    4.6391    1.8300   34.7071 H   0  0  0  0  0  0  0  0  0  0  0  0
    2.2731    2.5157   34.9933 H   0  0  0  0  0  0  0  0  0  0  0  0
    0.4975    0.7893   35.1032 H   0  0  0  0  0  0  0  0  0  0  0  0
    1.0596   -1.6010   34.9261 H   0  0  0  0  0  0  0  0  0  0  0  0
    1.3428   -4.3898   30.3308 H   0  0  0  0  0  0  0  0  0  0  0  0
    0.0931   -6.3105   29.5648 H   0  0  0  0  0  0  0  0  0  0  0  0
   -1.5342   -7.4969   34.5154 H   0  0  0  0  0  0  0  0  0  0  0  0
    2.4701   -8.4606   40.6959 H   0  0  0  0  0  0  0  0  0  0  0  0
    0.4897   -6.8584   40.0064 H   0  0  0  0  0  0  0  0  0  0  0  0
   -0.2798   -5.6478   37.5844 H   0  0  0  0  0  0  0  0  0  0  0  0
  1  2  1  0
  2  3  1  0
  3  4  1  0
  4  5  2  0
  5  6  1  0
  6  7  2  0
  7  8  1  0
  8  9  2  0
  2 10  1  0
 10 11  2  0
 10 12  1  0
 12 13  1  0
 13 14  2  0
 14 15  1  0
 15 16  2  0
 16 17  1  0
 17 18  2  0
 18 19  1  0
 19 20  1  0
 20 21  1  0
 21 22  1  0
 22 23  2  0
 23 24  1  0
 24 25  2  0
 24 26  1  0
 26 27  1  0
 27 28  1  0
 28 29  2  0
 29 30  1  0
 30 31  1  0
  9  4  1  0
 20 12  2  0
 31 22  1  0
 19 15  1  0
 30 26  2  0
  1 32  1  0
  1 33  1  0
  1 34  1  0
  3 35  1  0
  3 36  1  0
  5 37  1  0
  6 38  1  0
  7 39  1  0
  8 40  1  0
  9 41  1  0
 13 42  1  0
 14 43  1  0
 18 44  1  0
 28 45  1  0
 29 46  1  0
 31 47  1  0
M  END
>  <Energy>  (168) 
74.456652066197336

>  <compound_id>  (168) 
2442

>  <target_id>  (168) 
1

>  <reference_id>  (168) 
128

>  <inspiration_ids>  (168) 
[166, 128]

>  <energy_score>  (168) 
41.68443848327429

>  <distance_score>  (168) 
0.7773038915641642

>  <path>  (168) 
/opt/xchem-fragalysis-2/maxwin/BulkDock/SCRATCH/505736/C2442-P128/C2442-P128.minimised.mol

>  <scratch_subdir>  (168) 
/opt/xchem-fragalysis-2/maxwin/BulkDock/SCRATCH/505736/C2442-P128

>  <fragmenstein_runtime>  (168) 
2.2051024436950684

>  <fragmenstein_outcome>  (168) 
too contorted

>  <fragmenstein_mode>  (168) 
expansion

>  <fragmenstein_error>  (168) 


$$$$
C2442-P166
     RDKit          3D

 47 51  0  0  0  0  0  0  0  0999 V2000
    0.9267   -2.7475   36.4808 C   0  0  0  0  0  0  0  0  0  0  0  0
    0.7695   -3.5342   35.2250 N   0  0  0  0  0  0  0  0  0  0  0  0
    1.0796   -2.1618   34.5946 C   0  0  0  0  0  0  0  0  0  0  0  0
    0.8239   -2.0963   33.0944 C   0  0  0  0  0  0  0  0  0  0  0  0
   -0.4463   -2.3697   32.5731 C   0  0  0  0  0  0  0  0  0  0  0  0
   -0.6692   -2.2766   31.2000 C   0  0  0  0  0  0  0  0  0  0  0  0
    0.3617   -1.8929   30.3418 C   0  0  0  0  0  0  0  0  0  0  0  0
    1.6207   -1.5931   30.8521 C   0  0  0  0  0  0  0  0  0  0  0  0
    1.8507   -1.6891   32.2232 C   0  0  0  0  0  0  0  0  0  0  0  0
    1.5957   -4.5399   34.6494 C   0  0  0  0  0  0  0  0  0  0  0  0
    2.6769   -4.9490   34.9821 O   0  0  0  0  0  0  0  0  0  0  0  0
    0.9107   -5.2394   33.4992 C   0  0  0  0  0  0  0  0  0  0  0  0
    1.4804   -5.1373   32.1540 C   0  0  0  0  0  0  0  0  0  0  0  0
    0.9367   -5.7694   31.0988 C   0  0  0  0  0  0  0  0  0  0  0  0
   -0.1408   -6.6640   31.3074 C   0  0  0  0  0  0  0  0  0  0  0  0
   -0.8025   -7.4555   30.4915 N   0  0  0  0  0  0  0  0  0  0  0  0
   -1.6763   -8.1949   31.2465 N   0  0  0  0  0  0  0  0  0  0  0  0
   -1.5346   -7.8293   32.5004 C   0  0  0  0  0  0  0  0  0  0  0  0
   -0.6065   -6.8236   32.6057 N   0  0  0  0  0  0  0  0  0  0  0  0
   -0.1254   -6.0956   33.7086 C   0  0  0  0  0  0  0  0  0  0  0  0
   -0.8578   -6.4034   35.2670 S   0  0  0  0  0  0  0  0  0  0  0  0
    0.4786   -7.1677   36.1218 C   0  0  0  0  0  0  0  0  0  0  0  0
    1.3907   -7.7504   35.4134 N   0  0  0  0  0  0  0  0  0  0  0  0
    2.4882   -8.2844   36.0581 C   0  0  0  0  0  0  0  0  0  0  0  0
    3.3817   -8.8235   35.4144 O   0  0  0  0  0  0  0  0  0  0  0  0
    2.4467   -8.1765   37.4990 C   0  0  0  0  0  0  0  0  0  0  0  0
    3.6318   -8.7916   38.5453 S   0  0  0  0  0  0  0  0  0  0  0  0
    2.7512   -8.2619   39.9253 C   0  0  0  0  0  0  0  0  0  0  0  0
    1.5787   -7.6164   39.5822 C   0  0  0  0  0  0  0  0  0  0  0  0
    1.4214   -7.5747   38.1789 C   0  0  0  0  0  0  0  0  0  0  0  0
    0.4101   -7.0306   37.4837 N   0  0  0  0  0  0  0  0  0  0  0  0
    1.9285   -2.3331   36.6689 H   0  0  0  0  0  0  0  0  0  0  0  0
    0.0881   -2.0708   36.6978 H   0  0  0  0  0  0  0  0  0  0  0  0
    0.8424   -3.5159   37.2640 H   0  0  0  0  0  0  0  0  0  0  0  0
    2.1508   -1.9310   34.7256 H   0  0  0  0  0  0  0  0  0  0  0  0
    0.4551   -1.3285   34.9619 H   0  0  0  0  0  0  0  0  0  0  0  0
   -1.2637   -2.6588   33.2317 H   0  0  0  0  0  0  0  0  0  0  0  0
   -1.6534   -2.4920   30.7894 H   0  0  0  0  0  0  0  0  0  0  0  0
    0.1714   -1.8165   29.2724 H   0  0  0  0  0  0  0  0  0  0  0  0
    2.4168   -1.2788   30.1824 H   0  0  0  0  0  0  0  0  0  0  0  0
    2.8396   -1.4449   32.6061 H   0  0  0  0  0  0  0  0  0  0  0  0
    2.3502   -4.5008   32.0230 H   0  0  0  0  0  0  0  0  0  0  0  0
    1.3377   -5.6536   30.0985 H   0  0  0  0  0  0  0  0  0  0  0  0
   -2.0606   -8.2582   33.3414 H   0  0  0  0  0  0  0  0  0  0  0  0
    3.1402   -8.4508   40.9165 H   0  0  0  0  0  0  0  0  0  0  0  0
    0.8879   -7.2119   40.3105 H   0  0  0  0  0  0  0  0  0  0  0  0
   -0.3977   -6.5753   37.8878 H   0  0  0  0  0  0  0  0  0  0  0  0
  1  2  1  0
  2  3  1  0
  3  4  1  0
  4  5  2  0
  5  6  1  0
  6  7  2  0
  7  8  1  0
  8  9  2  0
  2 10  1  0
 10 11  2  0
 10 12  1  0
 12 13  1  0
 13 14  2  0
 14 15  1  0
 15 16  2  0
 16 17  1  0
 17 18  2  0
 18 19  1  0
 19 20  1  0
 20 21  1  0
 21 22  1  0
 22 23  2  0
 23 24  1  0
 24 25  2  0
 24 26  1  0
 26 27  1  0
 27 28  1  0
 28 29  2  0
 29 30  1  0
 30 31  1  0
  9  4  1  0
 20 12  2  0
 31 22  1  0
 19 15  1  0
 30 26  2  0
  1 32  1  0
  1 33  1  0
  1 34  1  0
  3 35  1  0
  3 36  1  0
  5 37  1  0
  6 38  1  0
  7 39  1  0
  8 40  1  0
  9 41  1  0
 13 42  1  0
 14 43  1  0
 18 44  1  0
 28 45  1  0
 29 46  1  0
 31 47  1  0
M  END
>  <Energy>  (169) 
57.31578454188864

>  <compound_id>  (169) 
2442

>  <target_id>  (169) 
1

>  <reference_id>  (169) 
166

>  <inspiration_ids>  (169) 
[166, 129]

>  <energy_score>  (169) 
12.210146866188367

>  <distance_score>  (169) 
2.1185676722776146

>  <path>  (169) 
/opt/xchem-fragalysis-2/maxwin/BulkDock/SCRATCH/505736/C2442-P166/C2442-P166.minimised.mol

>  <scratch_subdir>  (169) 
/opt/xchem-fragalysis-2/maxwin/BulkDock/SCRATCH/505736/C2442-P166

>  <fragmenstein_runtime>  (169) 
7.909259796142578

>  <fragmenstein_outcome>  (169) 
too moved

>  <fragmenstein_mode>  (169) 
expansion

>  <fragmenstein_error>  (169) 


$$$$
C2442-P129
     RDKit          3D

 47 51  0  0  0  0  0  0  0  0999 V2000
    0.8340   -2.6986   36.4198 C   0  0  0  0  0  0  0  0  0  0  0  0
    0.7394   -3.4818   35.1555 N   0  0  0  0  0  0  0  0  0  0  0  0
    0.9631   -2.0866   34.5404 C   0  0  0  0  0  0  0  0  0  0  0  0
    0.7363   -2.0332   33.0346 C   0  0  0  0  0  0  0  0  0  0  0  0
   -0.5063   -2.3747   32.4873 C   0  0  0  0  0  0  0  0  0  0  0  0
   -0.7037   -2.2981   31.1093 C   0  0  0  0  0  0  0  0  0  0  0  0
    0.3248   -1.8645   30.2719 C   0  0  0  0  0  0  0  0  0  0  0  0
    1.5555   -1.4990   30.8079 C   0  0  0  0  0  0  0  0  0  0  0  0
    1.7601   -1.5781   32.1841 C   0  0  0  0  0  0  0  0  0  0  0  0
    1.6348   -4.4250   34.5780 C   0  0  0  0  0  0  0  0  0  0  0  0
    2.7380   -4.7649   34.9164 O   0  0  0  0  0  0  0  0  0  0  0  0
    1.0026   -5.1550   33.4149 C   0  0  0  0  0  0  0  0  0  0  0  0
    1.6040   -5.0290   32.0852 C   0  0  0  0  0  0  0  0  0  0  0  0
    1.1140   -5.6778   31.0145 C   0  0  0  0  0  0  0  0  0  0  0  0
    0.0529   -6.5986   31.1891 C   0  0  0  0  0  0  0  0  0  0  0  0
   -0.5659   -7.4011   30.3501 N   0  0  0  0  0  0  0  0  0  0  0  0
   -1.4555   -8.1539   31.0727 N   0  0  0  0  0  0  0  0  0  0  0  0
   -1.3510   -7.7978   32.3332 C   0  0  0  0  0  0  0  0  0  0  0  0
   -0.4437   -6.7776   32.4735 N   0  0  0  0  0  0  0  0  0  0  0  0
   -0.0067   -6.0501   33.5950 C   0  0  0  0  0  0  0  0  0  0  0  0
   -0.7399   -6.4229   35.1413 S   0  0  0  0  0  0  0  0  0  0  0  0
    0.6474   -7.0745   36.0075 C   0  0  0  0  0  0  0  0  0  0  0  0
    1.5998   -7.5954   35.3031 N   0  0  0  0  0  0  0  0  0  0  0  0
    2.7463   -8.0172   35.9425 C   0  0  0  0  0  0  0  0  0  0  0  0
    3.6575   -8.5313   35.3022 O   0  0  0  0  0  0  0  0  0  0  0  0
    2.7173   -7.8606   37.3807 C   0  0  0  0  0  0  0  0  0  0  0  0
    3.9645   -8.3384   38.4267 S   0  0  0  0  0  0  0  0  0  0  0  0
    3.0519   -7.8608   39.8050 C   0  0  0  0  0  0  0  0  0  0  0  0
    1.8201   -7.3375   39.4619 C   0  0  0  0  0  0  0  0  0  0  0  0
    1.6458   -7.3431   38.0600 C   0  0  0  0  0  0  0  0  0  0  0  0
    0.5774   -6.9198   37.3666 N   0  0  0  0  0  0  0  0  0  0  0  0
    1.8068   -2.2262   36.6228 H   0  0  0  0  0  0  0  0  0  0  0  0
   -0.0461   -2.0760   36.6340 H   0  0  0  0  0  0  0  0  0  0  0  0
    0.7884   -3.4780   37.1951 H   0  0  0  0  0  0  0  0  0  0  0  0
    2.0110   -1.7766   34.6941 H   0  0  0  0  0  0  0  0  0  0  0  0
    0.2697   -1.3058   34.8992 H   0  0  0  0  0  0  0  0  0  0  0  0
   -1.3207   -2.7041   33.1308 H   0  0  0  0  0  0  0  0  0  0  0  0
   -1.6661   -2.5639   30.6778 H   0  0  0  0  0  0  0  0  0  0  0  0
    0.1536   -1.8002   29.1984 H   0  0  0  0  0  0  0  0  0  0  0  0
    2.3489   -1.1464   30.1542 H   0  0  0  0  0  0  0  0  0  0  0  0
    2.7270   -1.2835   32.5871 H   0  0  0  0  0  0  0  0  0  0  0  0
    2.4565   -4.3643   31.9813 H   0  0  0  0  0  0  0  0  0  0  0  0
    1.5409   -5.5462   30.0271 H   0  0  0  0  0  0  0  0  0  0  0  0
   -1.8899   -8.2417   33.1578 H   0  0  0  0  0  0  0  0  0  0  0  0
    3.4669   -7.9884   40.7956 H   0  0  0  0  0  0  0  0  0  0  0  0
    1.1002   -6.9847   40.1891 H   0  0  0  0  0  0  0  0  0  0  0  0
   -0.2683   -6.5378   37.7694 H   0  0  0  0  0  0  0  0  0  0  0  0
  1  2  1  0
  2  3  1  0
  3  4  1  0
  4  5  2  0
  5  6  1  0
  6  7  2  0
  7  8  1  0
  8  9  2  0
  2 10  1  0
 10 11  2  0
 10 12  1  0
 12 13  1  0
 13 14  2  0
 14 15  1  0
 15 16  2  0
 16 17  1  0
 17 18  2  0
 18 19  1  0
 19 20  1  0
 20 21  1  0
 21 22  1  0
 22 23  2  0
 23 24  1  0
 24 25  2  0
 24 26  1  0
 26 27  1  0
 27 28  1  0
 28 29  2  0
 29 30  1  0
 30 31  1  0
  9  4  1  0
 20 12  2  0
 31 22  1  0
 19 15  1  0
 30 26  2  0
  1 32  1  0
  1 33  1  0
  1 34  1  0
  3 35  1  0
  3 36  1  0
  5 37  1  0
  6 38  1  0
  7 39  1  0
  8 40  1  0
  9 41  1  0
 13 42  1  0
 14 43  1  0
 18 44  1  0
 28 45  1  0
 29 46  1  0
 31 47  1  0
M  END
>  <Energy>  (170) 
57.254240946348993

>  <compound_id>  (170) 
2442

>  <target_id>  (170) 
1

>  <reference_id>  (170) 
129

>  <inspiration_ids>  (170) 
[166, 129]

>  <energy_score>  (170) 
12.148603270648273

>  <distance_score>  (170) 
2.200865767740191

>  <path>  (170) 
/opt/xchem-fragalysis-2/maxwin/BulkDock/SCRATCH/505736/C2442-P129/C2442-P129.minimised.mol

>  <scratch_subdir>  (170) 
/opt/xchem-fragalysis-2/maxwin/BulkDock/SCRATCH/505736/C2442-P129

>  <fragmenstein_runtime>  (170) 
8.18346619606018

>  <fragmenstein_outcome>  (170) 
too moved

>  <fragmenstein_mode>  (170) 
expansion

>  <fragmenstein_error>  (170) 


$$$$
C2444-P166
     RDKit          3D

 58 63  0  0  0  0  0  0  0  0999 V2000
   -1.2564   -2.5775   32.4206 O   0  0  0  0  0  0  0  0  0  0  0  0
   -0.2548   -3.0556   32.8847 C   0  0  0  0  0  0  0  0  0  0  0  0
   -0.0826   -4.5131   32.6157 C   0  0  0  0  0  0  0  0  0  0  0  0
    0.2589   -4.8150   31.2214 C   0  0  0  0  0  0  0  0  0  0  0  0
    0.0539   -6.0237   30.6874 C   0  0  0  0  0  0  0  0  0  0  0  0
   -0.5579   -7.0215   31.4703 C   0  0  0  0  0  0  0  0  0  0  0  0
   -1.0573   -8.1898   31.1439 N   0  0  0  0  0  0  0  0  0  0  0  0
   -1.5823   -8.7370   32.2797 N   0  0  0  0  0  0  0  0  0  0  0  0
   -1.3762   -7.9008   33.2740 C   0  0  0  0  0  0  0  0  0  0  0  0
   -0.7738   -6.7553   32.8200 N   0  0  0  0  0  0  0  0  0  0  0  0
   -0.5108   -5.5055   33.4297 C   0  0  0  0  0  0  0  0  0  0  0  0
   -0.8754   -5.2577   35.1142 S   0  0  0  0  0  0  0  0  0  0  0  0
    0.2703   -6.3247   35.9246 C   0  0  0  0  0  0  0  0  0  0  0  0
    1.1312   -6.9685   35.2040 N   0  0  0  0  0  0  0  0  0  0  0  0
    2.0229   -7.8225   35.8260 C   0  0  0  0  0  0  0  0  0  0  0  0
    2.7859   -8.5147   35.1596 O   0  0  0  0  0  0  0  0  0  0  0  0
    1.9535   -7.8045   37.2689 C   0  0  0  0  0  0  0  0  0  0  0  0
    3.0168   -8.6343   38.2977 S   0  0  0  0  0  0  0  0  0  0  0  0
    2.1680   -8.0869   39.6899 C   0  0  0  0  0  0  0  0  0  0  0  0
    1.1108   -7.2583   39.3658 C   0  0  0  0  0  0  0  0  0  0  0  0
    1.0094   -7.0978   37.9654 C   0  0  0  0  0  0  0  0  0  0  0  0
    0.1184   -6.3545   37.2877 N   0  0  0  0  0  0  0  0  0  0  0  0
    0.8354   -2.4439   33.5623 N   0  0  0  0  0  0  0  0  0  0  0  0
    1.9159   -2.0532   32.5643 C   0  0  0  0  0  0  0  0  0  0  0  0
    3.2101   -1.2566   32.8631 C   0  0  0  0  0  0  0  0  0  0  0  0
    2.8733    0.2185   33.0427 C   0  0  0  0  0  0  0  0  0  0  0  0
    1.3485    0.3060   33.1555 C   0  0  0  0  0  0  0  0  0  0  0  0
    0.5673    0.4403   31.8402 C   0  0  0  0  0  0  0  0  0  0  0  0
    1.1936    0.5921   30.5897 C   0  0  0  0  0  0  0  0  0  0  0  0
    0.5344    0.2274   29.4119 C   0  0  0  0  0  0  0  0  0  0  0  0
   -0.7750   -0.2464   29.4610 C   0  0  0  0  0  0  0  0  0  0  0  0
   -1.3587   -0.9995   28.3001 C   0  0  0  0  0  0  0  0  0  0  0  0
   -1.2731   -2.3885   28.6103 O   0  0  0  0  0  0  0  0  0  0  0  0
   -1.4707   -0.1530   30.6679 C   0  0  0  0  0  0  0  0  0  0  0  0
   -0.8116    0.2118   31.8454 C   0  0  0  0  0  0  0  0  0  0  0  0
    1.0367   -1.0015   34.0229 C   0  0  0  0  0  0  0  0  0  0  0  0
    0.6404   -4.0064   30.6004 H   0  0  0  0  0  0  0  0  0  0  0  0
    0.2860   -6.2220   29.6541 H   0  0  0  0  0  0  0  0  0  0  0  0
   -1.6637   -8.0733   34.3007 H   0  0  0  0  0  0  0  0  0  0  0  0
    2.4907   -8.3984   40.6740 H   0  0  0  0  0  0  0  0  0  0  0  0
    0.4618   -6.8073   40.1056 H   0  0  0  0  0  0  0  0  0  0  0  0
   -0.6019   -5.7826   37.7131 H   0  0  0  0  0  0  0  0  0  0  0  0
    2.3323   -3.0489   32.3337 H   0  0  0  0  0  0  0  0  0  0  0  0
    1.4749   -1.8111   31.5908 H   0  0  0  0  0  0  0  0  0  0  0  0
    3.7066   -1.6561   33.7561 H   0  0  0  0  0  0  0  0  0  0  0  0
    3.9146   -1.3710   32.0309 H   0  0  0  0  0  0  0  0  0  0  0  0
    3.3318    0.5638   33.9791 H   0  0  0  0  0  0  0  0  0  0  0  0
    3.3089    0.8453   32.2616 H   0  0  0  0  0  0  0  0  0  0  0  0
    1.1061    1.1928   33.7560 H   0  0  0  0  0  0  0  0  0  0  0  0
    2.2431    0.8537   30.5006 H   0  0  0  0  0  0  0  0  0  0  0  0
    1.0881    0.2091   28.4758 H   0  0  0  0  0  0  0  0  0  0  0  0
   -2.3987   -0.7241   28.1358 H   0  0  0  0  0  0  0  0  0  0  0  0
   -0.8037   -0.8000   27.3810 H   0  0  0  0  0  0  0  0  0  0  0  0
   -1.8917   -2.8482   28.0019 H   0  0  0  0  0  0  0  0  0  0  0  0
   -2.4939   -0.5130   30.7331 H   0  0  0  0  0  0  0  0  0  0  0  0
   -1.3598    0.1250   32.7809 H   0  0  0  0  0  0  0  0  0  0  0  0
    0.0550   -0.7882   34.4742 H   0  0  0  0  0  0  0  0  0  0  0  0
    1.7001   -1.0490   34.9030 H   0  0  0  0  0  0  0  0  0  0  0  0
  1  2  2  0
  2  3  1  0
  3  4  1  0
  4  5  2  0
  5  6  1  0
  6  7  2  0
  7  8  1  0
  8  9  2  0
  9 10  1  0
 10 11  1  0
 11 12  1  0
 12 13  1  0
 13 14  2  0
 14 15  1  0
 15 16  2  0
 15 17  1  0
 17 18  1  0
 18 19  1  0
 19 20  2  0
 20 21  1  0
 21 22  1  0
  2 23  1  0
 23 24  1  0
 24 25  1  0
 25 26  1  0
 26 27  1  0
 27 28  1  0
 28 29  2  0
 29 30  1  0
 30 31  2  0
 31 32  1  0
 32 33  1  0
 31 34  1  0
 34 35  2  0
 27 36  1  0
 11  3  2  0
 22 13  1  0
 36 23  1  0
 10  6  1  0
 21 17  2  0
 35 28  1  0
  4 37  1  0
  5 38  1  0
  9 39  1  0
 19 40  1  0
 20 41  1  0
 22 42  1  0
 24 43  1  0
 24 44  1  0
 25 45  1  0
 25 46  1  0
 26 47  1  0
 26 48  1  0
 27 49  1  0
 29 50  1  0
 30 51  1  0
 32 52  1  0
 32 53  1  0
 33 54  1  0
 34 55  1  0
 35 56  1  0
 36 57  1  0
 36 58  1  0
M  END
>  <Energy>  (171) 
118.37672711803762

>  <compound_id>  (171) 
2444

>  <target_id>  (171) 
1

>  <reference_id>  (171) 
166

>  <inspiration_ids>  (171) 
[166, 131]

>  <energy_score>  (171) 
38.305409950287725

>  <distance_score>  (171) 
1.640238290851208

>  <path>  (171) 
/opt/xchem-fragalysis-2/maxwin/BulkDock/SCRATCH/505736/C2444-P166/C2444-P166.minimised.mol

>  <scratch_subdir>  (171) 
/opt/xchem-fragalysis-2/maxwin/BulkDock/SCRATCH/505736/C2444-P166

>  <fragmenstein_runtime>  (171) 
6.996992349624634

>  <fragmenstein_outcome>  (171) 
too moved

>  <fragmenstein_mode>  (171) 
expansion

>  <fragmenstein_error>  (171) 


$$$$
C2444-P131
     RDKit          3D

 58 63  0  0  0  0  0  0  0  0999 V2000
   -0.9576   -2.5827   32.4468 O   0  0  0  0  0  0  0  0  0  0  0  0
    0.1047   -2.9849   32.8425 C   0  0  0  0  0  0  0  0  0  0  0  0
    0.3664   -4.4215   32.5378 C   0  0  0  0  0  0  0  0  0  0  0  0
    0.7296   -4.6875   31.1429 C   0  0  0  0  0  0  0  0  0  0  0  0
    0.4798   -5.8649   30.5589 C   0  0  0  0  0  0  0  0  0  0  0  0
   -0.1940   -6.8627   31.2921 C   0  0  0  0  0  0  0  0  0  0  0  0
   -0.7396   -7.9953   30.9142 N   0  0  0  0  0  0  0  0  0  0  0  0
   -1.3131   -8.5576   32.0205 N   0  0  0  0  0  0  0  0  0  0  0  0
   -1.0856   -7.7674   33.0483 C   0  0  0  0  0  0  0  0  0  0  0  0
   -0.4218   -6.6372   32.6473 N   0  0  0  0  0  0  0  0  0  0  0  0
   -0.1195   -5.4240   33.3059 C   0  0  0  0  0  0  0  0  0  0  0  0
   -0.5088   -5.2198   34.9894 S   0  0  0  0  0  0  0  0  0  0  0  0
    0.6551   -6.2686   35.7870 C   0  0  0  0  0  0  0  0  0  0  0  0
    1.5421   -6.8729   35.0638 N   0  0  0  0  0  0  0  0  0  0  0  0
    2.4640   -7.6938   35.6838 C   0  0  0  0  0  0  0  0  0  0  0  0
    3.2286   -8.3861   35.0185 O   0  0  0  0  0  0  0  0  0  0  0  0
    2.4124   -7.6563   37.1294 C   0  0  0  0  0  0  0  0  0  0  0  0
    3.5329   -8.4056   38.1606 S   0  0  0  0  0  0  0  0  0  0  0  0
    2.6564   -7.9038   39.5530 C   0  0  0  0  0  0  0  0  0  0  0  0
    1.5477   -7.1462   39.2277 C   0  0  0  0  0  0  0  0  0  0  0  0
    1.4318   -7.0019   37.8269 C   0  0  0  0  0  0  0  0  0  0  0  0
    0.4961   -6.3182   37.1483 N   0  0  0  0  0  0  0  0  0  0  0  0
    1.1833   -2.2957   33.4629 N   0  0  0  0  0  0  0  0  0  0  0  0
    2.1678   -1.8095   32.4075 C   0  0  0  0  0  0  0  0  0  0  0  0
    3.4003   -0.8968   32.6293 C   0  0  0  0  0  0  0  0  0  0  0  0
    2.9419    0.5408   32.8408 C   0  0  0  0  0  0  0  0  0  0  0  0
    1.4272    0.4860   33.0586 C   0  0  0  0  0  0  0  0  0  0  0  0
    0.5489    0.5489   31.8007 C   0  0  0  0  0  0  0  0  0  0  0  0
    1.0704    0.7526   30.5103 C   0  0  0  0  0  0  0  0  0  0  0  0
    0.3627    0.3318   29.3803 C   0  0  0  0  0  0  0  0  0  0  0  0
   -0.8944   -0.2538   29.5191 C   0  0  0  0  0  0  0  0  0  0  0  0
   -1.5063   -1.0329   28.3912 C   0  0  0  0  0  0  0  0  0  0  0  0
   -1.4578   -2.4161   28.7315 O   0  0  0  0  0  0  0  0  0  0  0  0
   -1.5104   -0.2171   30.7706 C   0  0  0  0  0  0  0  0  0  0  0  0
   -0.8020    0.2030   31.9008 C   0  0  0  0  0  0  0  0  0  0  0  0
    1.2984   -0.8481   33.9321 C   0  0  0  0  0  0  0  0  0  0  0  0
    1.1580   -3.8770   30.5591 H   0  0  0  0  0  0  0  0  0  0  0  0
    0.7296   -6.0349   29.5234 H   0  0  0  0  0  0  0  0  0  0  0  0
   -1.4023   -7.9563   34.0637 H   0  0  0  0  0  0  0  0  0  0  0  0
    3.0027   -8.1847   40.5384 H   0  0  0  0  0  0  0  0  0  0  0  0
    0.8741   -6.7310   39.9665 H   0  0  0  0  0  0  0  0  0  0  0  0
   -0.2497   -5.7771   37.5703 H   0  0  0  0  0  0  0  0  0  0  0  0
    2.6603   -2.7635   32.1531 H   0  0  0  0  0  0  0  0  0  0  0  0
    1.6520   -1.6090   31.4617 H   0  0  0  0  0  0  0  0  0  0  0  0
    3.9879   -1.2502   33.4856 H   0  0  0  0  0  0  0  0  0  0  0  0
    4.0576   -0.9448   31.7532 H   0  0  0  0  0  0  0  0  0  0  0  0
    3.4301    0.9272   33.7457 H   0  0  0  0  0  0  0  0  0  0  0  0
    3.2623    1.2052   32.0353 H   0  0  0  0  0  0  0  0  0  0  0  0
    1.1457    1.3448   33.6823 H   0  0  0  0  0  0  0  0  0  0  0  0
    2.0835    1.1063   30.3489 H   0  0  0  0  0  0  0  0  0  0  0  0
    0.8459    0.3675   28.4063 H   0  0  0  0  0  0  0  0  0  0  0  0
   -2.5391   -0.7381   28.2275 H   0  0  0  0  0  0  0  0  0  0  0  0
   -0.9525   -0.8721   27.4655 H   0  0  0  0  0  0  0  0  0  0  0  0
   -2.0161   -2.8787   28.0698 H   0  0  0  0  0  0  0  0  0  0  0  0
   -2.4948   -0.6605   30.9008 H   0  0  0  0  0  0  0  0  0  0  0  0
   -1.2737    0.0719   32.8721 H   0  0  0  0  0  0  0  0  0  0  0  0
    0.3384   -0.7235   34.4574 H   0  0  0  0  0  0  0  0  0  0  0  0
    2.0263   -0.8448   34.7610 H   0  0  0  0  0  0  0  0  0  0  0  0
  1  2  2  0
  2  3  1  0
  3  4  1  0
  4  5  2  0
  5  6  1  0
  6  7  2  0
  7  8  1  0
  8  9  2  0
  9 10  1  0
 10 11  1  0
 11 12  1  0
 12 13  1  0
 13 14  2  0
 14 15  1  0
 15 16  2  0
 15 17  1  0
 17 18  1  0
 18 19  1  0
 19 20  2  0
 20 21  1  0
 21 22  1  0
  2 23  1  0
 23 24  1  0
 24 25  1  0
 25 26  1  0
 26 27  1  0
 27 28  1  0
 28 29  2  0
 29 30  1  0
 30 31  2  0
 31 32  1  0
 32 33  1  0
 31 34  1  0
 34 35  2  0
 27 36  1  0
 11  3  2  0
 22 13  1  0
 36 23  1  0
 10  6  1  0
 21 17  2  0
 35 28  1  0
  4 37  1  0
  5 38  1  0
  9 39  1  0
 19 40  1  0
 20 41  1  0
 22 42  1  0
 24 43  1  0
 24 44  1  0
 25 45  1  0
 25 46  1  0
 26 47  1  0
 26 48  1  0
 27 49  1  0
 29 50  1  0
 30 51  1  0
 32 52  1  0
 32 53  1  0
 33 54  1  0
 34 55  1  0
 35 56  1  0
 36 57  1  0
 36 58  1  0
M  END
>  <Energy>  (172) 
121.64794930507404

>  <compound_id>  (172) 
2444

>  <target_id>  (172) 
1

>  <reference_id>  (172) 
131

>  <inspiration_ids>  (172) 
[166, 131]

>  <energy_score>  (172) 
41.57663213732499

>  <distance_score>  (172) 
1.6574519270683434

>  <path>  (172) 
/opt/xchem-fragalysis-2/maxwin/BulkDock/SCRATCH/505736/C2444-P131/C2444-P131.minimised.mol

>  <scratch_subdir>  (172) 
/opt/xchem-fragalysis-2/maxwin/BulkDock/SCRATCH/505736/C2444-P131

>  <fragmenstein_runtime>  (172) 
6.9728453159332275

>  <fragmenstein_outcome>  (172) 
too moved

>  <fragmenstein_mode>  (172) 
expansion

>  <fragmenstein_error>  (172) 


$$$$
C2444-P166
     RDKit          3D

 58 63  0  0  0  0  0  0  0  0999 V2000
    1.9121   -4.5103   35.0557 O   0  0  0  0  0  0  0  0  0  0  0  0
    1.4651   -4.1515   34.0660 C   0  0  0  0  0  0  0  0  0  0  0  0
    0.7222   -5.0612   33.1100 C   0  0  0  0  0  0  0  0  0  0  0  0
    1.0879   -5.0284   31.6863 C   0  0  0  0  0  0  0  0  0  0  0  0
    0.5413   -5.8597   30.7848 C   0  0  0  0  0  0  0  0  0  0  0  0
   -0.3790   -6.8406   31.2184 C   0  0  0  0  0  0  0  0  0  0  0  0
   -1.0322   -7.7790   30.5708 N   0  0  0  0  0  0  0  0  0  0  0  0
   -1.7623   -8.4848   31.4906 N   0  0  0  0  0  0  0  0  0  0  0  0
   -1.5477   -7.9522   32.6727 C   0  0  0  0  0  0  0  0  0  0  0  0
   -0.6996   -6.8780   32.5695 N   0  0  0  0  0  0  0  0  0  0  0  0
   -0.1885   -5.9797   33.5262 C   0  0  0  0  0  0  0  0  0  0  0  0
   -0.8110   -6.0838   35.1524 S   0  0  0  0  0  0  0  0  0  0  0  0
    0.4869   -6.9121   36.0039 C   0  0  0  0  0  0  0  0  0  0  0  0
    1.3789   -7.5483   35.3130 N   0  0  0  0  0  0  0  0  0  0  0  0
    2.4305   -8.1353   35.9889 C   0  0  0  0  0  0  0  0  0  0  0  0
    3.3412   -8.6819   35.3726 O   0  0  0  0  0  0  0  0  0  0  0  0
    2.3454   -8.0568   37.4293 C   0  0  0  0  0  0  0  0  0  0  0  0
    3.4546   -8.7612   38.5025 S   0  0  0  0  0  0  0  0  0  0  0  0
    2.5683   -8.1929   39.8627 C   0  0  0  0  0  0  0  0  0  0  0  0
    1.4526   -7.4667   39.4930 C   0  0  0  0  0  0  0  0  0  0  0  0
    1.3414   -7.4001   38.0864 C   0  0  0  0  0  0  0  0  0  0  0  0
    0.3919   -6.7845   37.3670 N   0  0  0  0  0  0  0  0  0  0  0  0
    1.5134   -2.7148   33.2727 N   0  0  0  0  0  0  0  0  0  0  0  0
    2.4076   -1.0115   33.4704 C   0  0  0  0  0  0  0  0  0  0  0  0
    3.0693   -0.0041   34.8108 C   0  0  0  0  0  0  0  0  0  0  0  0
    3.9994   -0.9467   35.5072 C   0  0  0  0  0  0  0  0  0  0  0  0
    3.8215   -2.1000   34.5392 C   0  0  0  0  0  0  0  0  0  0  0  0
    4.3537   -3.4386   34.9829 C   0  0  0  0  0  0  0  0  0  0  0  0
    4.4250   -3.8363   36.3254 C   0  0  0  0  0  0  0  0  0  0  0  0
    5.0387   -5.0424   36.6902 C   0  0  0  0  0  0  0  0  0  0  0  0
    5.6099   -5.8778   35.7246 C   0  0  0  0  0  0  0  0  0  0  0  0
    6.3497   -7.1257   36.1279 C   0  0  0  0  0  0  0  0  0  0  0  0
    6.1061   -8.1955   35.2255 O   0  0  0  0  0  0  0  0  0  0  0  0
    5.5471   -5.4832   34.3853 C   0  0  0  0  0  0  0  0  0  0  0  0
    4.9113   -4.2943   34.0170 C   0  0  0  0  0  0  0  0  0  0  0  0
    2.0658   -1.6332   33.8338 C   0  0  0  0  0  0  0  0  0  0  0  0
    1.8156   -4.2899   31.3616 H   0  0  0  0  0  0  0  0  0  0  0  0
    0.8048   -5.8074   29.7357 H   0  0  0  0  0  0  0  0  0  0  0  0
   -1.9640   -8.3072   33.6047 H   0  0  0  0  0  0  0  0  0  0  0  0
    2.9109   -8.4204   40.8629 H   0  0  0  0  0  0  0  0  0  0  0  0
    0.7667   -7.0256   40.2048 H   0  0  0  0  0  0  0  0  0  0  0  0
   -0.3788   -6.2529   37.7507 H   0  0  0  0  0  0  0  0  0  0  0  0
    3.2234   -0.9723   32.5730 H   0  0  0  0  0  0  0  0  0  0  0  0
    1.7090   -0.1849   32.8572 H   0  0  0  0  0  0  0  0  0  0  0  0
    3.5861    0.8395   34.3405 H   0  0  0  0  0  0  0  0  0  0  0  0
    2.2555    0.3638   35.4466 H   0  0  0  0  0  0  0  0  0  0  0  0
    5.0285   -0.5815   35.5656 H   0  0  0  0  0  0  0  0  0  0  0  0
    3.6346   -1.1535   36.5165 H   0  0  0  0  0  0  0  0  0  0  0  0
    4.5104   -1.8615   33.7033 H   0  0  0  0  0  0  0  0  0  0  0  0
    3.9954   -3.2246   37.1130 H   0  0  0  0  0  0  0  0  0  0  0  0
    5.0761   -5.3148   37.7427 H   0  0  0  0  0  0  0  0  0  0  0  0
    7.4255   -6.9230   36.1391 H   0  0  0  0  0  0  0  0  0  0  0  0
    6.0574   -7.4559   37.1290 H   0  0  0  0  0  0  0  0  0  0  0  0
    5.1378   -8.3500   35.2230 H   0  0  0  0  0  0  0  0  0  0  0  0
    6.0121   -6.1007   33.6200 H   0  0  0  0  0  0  0  0  0  0  0  0
    4.8896   -4.0233   32.9639 H   0  0  0  0  0  0  0  0  0  0  0  0
    1.0118   -1.1378   34.4631 H   0  0  0  0  0  0  0  0  0  0  0  0
    1.8714   -2.1182   34.9300 H   0  0  0  0  0  0  0  0  0  0  0  0
  1  2  2  0
  2  3  1  0
  3  4  1  0
  4  5  2  0
  5  6  1  0
  6  7  2  0
  7  8  1  0
  8  9  2  0
  9 10  1  0
 10 11  1  0
 11 12  1  0
 12 13  1  0
 13 14  2  0
 14 15  1  0
 15 16  2  0
 15 17  1  0
 17 18  1  0
 18 19  1  0
 19 20  2  0
 20 21  1  0
 21 22  1  0
  2 23  1  0
 23 24  1  0
 24 25  1  0
 25 26  1  0
 26 27  1  0
 27 28  1  0
 28 29  2  0
 29 30  1  0
 30 31  2  0
 31 32  1  0
 32 33  1  0
 31 34  1  0
 34 35  2  0
 27 36  1  0
 11  3  2  0
 22 13  1  0
 36 23  1  0
 10  6  1  0
 21 17  2  0
 35 28  1  0
  4 37  1  0
  5 38  1  0
  9 39  1  0
 19 40  1  0
 20 41  1  0
 22 42  1  0
 24 43  1  0
 24 44  1  0
 25 45  1  0
 25 46  1  0
 26 47  1  0
 26 48  1  0
 27 49  1  0
 29 50  1  0
 30 51  1  0
 32 52  1  0
 32 53  1  0
 33 54  1  0
 34 55  1  0
 35 56  1  0
 36 57  1  0
 36 58  1  0
M  END
>  <Energy>  (173) 
783.65066784133353

>  <compound_id>  (173) 
2444

>  <target_id>  (173) 
1

>  <reference_id>  (173) 
166

>  <inspiration_ids>  (173) 
[166, 132]

>  <energy_score>  (173) 
703.5793506735856

>  <distance_score>  (173) 
1.0829385314657731

>  <path>  (173) 
/opt/xchem-fragalysis-2/maxwin/BulkDock/SCRATCH/505736/C2444-P166/C2444-P166.minimised.mol

>  <scratch_subdir>  (173) 
/opt/xchem-fragalysis-2/maxwin/BulkDock/SCRATCH/505736/C2444-P166

>  <fragmenstein_runtime>  (173) 
4.63573956489563

>  <fragmenstein_outcome>  (173) 
too moved

>  <fragmenstein_mode>  (173) 
expansion

>  <fragmenstein_error>  (173) 


$$$$
C2444-P132
     RDKit          3D

 58 63  0  0  0  0  0  0  0  0999 V2000
    2.0692   -4.3877   34.9768 O   0  0  0  0  0  0  0  0  0  0  0  0
    1.6418   -4.0399   33.9743 C   0  0  0  0  0  0  0  0  0  0  0  0
    0.9340   -4.9637   33.0059 C   0  0  0  0  0  0  0  0  0  0  0  0
    1.3343   -4.9328   31.5912 C   0  0  0  0  0  0  0  0  0  0  0  0
    0.8084   -5.7626   30.6759 C   0  0  0  0  0  0  0  0  0  0  0  0
   -0.1334   -6.7340   31.0842 C   0  0  0  0  0  0  0  0  0  0  0  0
   -0.7852   -7.6627   30.4194 N   0  0  0  0  0  0  0  0  0  0  0  0
   -1.5534   -8.3552   31.3181 N   0  0  0  0  0  0  0  0  0  0  0  0
   -1.3497   -7.8320   32.5059 C   0  0  0  0  0  0  0  0  0  0  0  0
   -0.4823   -6.7720   32.4278 N   0  0  0  0  0  0  0  0  0  0  0  0
    0.0185   -5.8864   33.4019 C   0  0  0  0  0  0  0  0  0  0  0  0
   -0.6229   -6.0159   35.0205 S   0  0  0  0  0  0  0  0  0  0  0  0
    0.7085   -6.7423   35.9045 C   0  0  0  0  0  0  0  0  0  0  0  0
    1.6133   -7.3849   35.2371 N   0  0  0  0  0  0  0  0  0  0  0  0
    2.7039   -7.8771   35.9259 C   0  0  0  0  0  0  0  0  0  0  0  0
    3.6188   -8.4333   35.3253 O   0  0  0  0  0  0  0  0  0  0  0  0
    2.6240   -7.7391   37.3626 C   0  0  0  0  0  0  0  0  0  0  0  0
    3.7545   -8.3724   38.4573 S   0  0  0  0  0  0  0  0  0  0  0  0
    2.8449   -7.7973   39.7987 C   0  0  0  0  0  0  0  0  0  0  0  0
    1.7078   -7.1175   39.4064 C   0  0  0  0  0  0  0  0  0  0  0  0
    1.5954   -7.0997   37.9988 C   0  0  0  0  0  0  0  0  0  0  0  0
    0.6186   -6.5530   37.2601 N   0  0  0  0  0  0  0  0  0  0  0  0
    1.6859   -2.6061   33.1783 N   0  0  0  0  0  0  0  0  0  0  0  0
    2.5464   -0.8864   33.3948 C   0  0  0  0  0  0  0  0  0  0  0  0
    3.1583    0.1202   34.7644 C   0  0  0  0  0  0  0  0  0  0  0  0
    4.0635   -0.8237   35.4941 C   0  0  0  0  0  0  0  0  0  0  0  0
    3.9480   -1.9571   34.4956 C   0  0  0  0  0  0  0  0  0  0  0  0
    4.5003   -3.2978   34.9051 C   0  0  0  0  0  0  0  0  0  0  0  0
    5.0412   -4.1336   33.9133 C   0  0  0  0  0  0  0  0  0  0  0  0
    5.6998   -5.3197   34.2467 C   0  0  0  0  0  0  0  0  0  0  0  0
    5.8202   -5.7216   35.5800 C   0  0  0  0  0  0  0  0  0  0  0  0
    6.6074   -6.9530   35.9430 C   0  0  0  0  0  0  0  0  0  0  0  0
    6.3435   -8.0220   35.0446 O   0  0  0  0  0  0  0  0  0  0  0  0
    5.2626   -4.9083   36.5723 C   0  0  0  0  0  0  0  0  0  0  0  0
    4.6121   -3.7123   36.2389 C   0  0  0  0  0  0  0  0  0  0  0  0
    2.2038   -1.5145   33.7479 C   0  0  0  0  0  0  0  0  0  0  0  0
    2.0743   -4.1977   31.2863 H   0  0  0  0  0  0  0  0  0  0  0  0
    1.0997   -5.7102   29.6342 H   0  0  0  0  0  0  0  0  0  0  0  0
   -1.7923   -8.1778   33.4275 H   0  0  0  0  0  0  0  0  0  0  0  0
    3.1881   -7.9907   40.8063 H   0  0  0  0  0  0  0  0  0  0  0  0
    1.0044   -6.6848   40.1064 H   0  0  0  0  0  0  0  0  0  0  0  0
   -0.1502   -6.0048   37.6254 H   0  0  0  0  0  0  0  0  0  0  0  0
    3.3847   -0.8329   32.5195 H   0  0  0  0  0  0  0  0  0  0  0  0
    1.8518   -0.0676   32.7673 H   0  0  0  0  0  0  0  0  0  0  0  0
    3.6909    0.9648   34.3140 H   0  0  0  0  0  0  0  0  0  0  0  0
    2.3208    0.4856   35.3701 H   0  0  0  0  0  0  0  0  0  0  0  0
    5.0828   -0.4470   35.6151 H   0  0  0  0  0  0  0  0  0  0  0  0
    3.6469   -1.0600   36.4768 H   0  0  0  0  0  0  0  0  0  0  0  0
    4.6595   -1.6776   33.6913 H   0  0  0  0  0  0  0  0  0  0  0  0
    4.9849   -3.8485   32.8652 H   0  0  0  0  0  0  0  0  0  0  0  0
    6.1427   -5.9255   33.4588 H   0  0  0  0  0  0  0  0  0  0  0  0
    7.6777   -6.7259   35.9037 H   0  0  0  0  0  0  0  0  0  0  0  0
    6.3710   -7.2953   36.9547 H   0  0  0  0  0  0  0  0  0  0  0  0
    5.3789   -8.1926   35.0931 H   0  0  0  0  0  0  0  0  0  0  0  0
    5.3431   -5.1878   37.6206 H   0  0  0  0  0  0  0  0  0  0  0  0
    4.2002   -3.1143   37.0465 H   0  0  0  0  0  0  0  0  0  0  0  0
    1.1250   -1.0350   34.3470 H   0  0  0  0  0  0  0  0  0  0  0  0
    1.9871   -1.9996   34.8400 H   0  0  0  0  0  0  0  0  0  0  0  0
  1  2  2  0
  2  3  1  0
  3  4  1  0
  4  5  2  0
  5  6  1  0
  6  7  2  0
  7  8  1  0
  8  9  2  0
  9 10  1  0
 10 11  1  0
 11 12  1  0
 12 13  1  0
 13 14  2  0
 14 15  1  0
 15 16  2  0
 15 17  1  0
 17 18  1  0
 18 19  1  0
 19 20  2  0
 20 21  1  0
 21 22  1  0
  2 23  1  0
 23 24  1  0
 24 25  1  0
 25 26  1  0
 26 27  1  0
 27 28  1  0
 28 29  2  0
 29 30  1  0
 30 31  2  0
 31 32  1  0
 32 33  1  0
 31 34  1  0
 34 35  2  0
 27 36  1  0
 11  3  2  0
 22 13  1  0
 36 23  1  0
 10  6  1  0
 21 17  2  0
 35 28  1  0
  4 37  1  0
  5 38  1  0
  9 39  1  0
 19 40  1  0
 20 41  1  0
 22 42  1  0
 24 43  1  0
 24 44  1  0
 25 45  1  0
 25 46  1  0
 26 47  1  0
 26 48  1  0
 27 49  1  0
 29 50  1  0
 30 51  1  0
 32 52  1  0
 32 53  1  0
 33 54  1  0
 34 55  1  0
 35 56  1  0
 36 57  1  0
 36 58  1  0
M  END
>  <Energy>  (174) 
784.48674793474572

>  <compound_id>  (174) 
2444

>  <target_id>  (174) 
1

>  <reference_id>  (174) 
132

>  <inspiration_ids>  (174) 
[166, 132]

>  <energy_score>  (174) 
704.4154307670019

>  <distance_score>  (174) 
1.2463088529706157

>  <path>  (174) 
/opt/xchem-fragalysis-2/maxwin/BulkDock/SCRATCH/505736/C2444-P132/C2444-P132.minimised.mol

>  <scratch_subdir>  (174) 
/opt/xchem-fragalysis-2/maxwin/BulkDock/SCRATCH/505736/C2444-P132

>  <fragmenstein_runtime>  (174) 
5.040580749511719

>  <fragmenstein_outcome>  (174) 
too moved

>  <fragmenstein_mode>  (174) 
expansion

>  <fragmenstein_error>  (174) 


$$$$
C2445-P166
     RDKit          3D

 48 53  0  0  0  0  0  0  0  0999 V2000
    2.9927   -8.6865   35.3572 O   0  0  0  0  0  0  0  0  0  0  0  0
    2.1688   -8.1760   36.1157 C   0  0  0  0  0  0  0  0  0  0  0  0
    1.0606   -7.5846   35.5787 N   0  0  0  0  0  0  0  0  0  0  0  0
    0.1232   -6.9148   36.3220 C   0  0  0  0  0  0  0  0  0  0  0  0
   -1.1645   -6.1746   35.3940 S   0  0  0  0  0  0  0  0  0  0  0  0
   -0.5471   -6.1157   33.7826 C   0  0  0  0  0  0  0  0  0  0  0  0
    0.4528   -5.2715   33.4757 C   0  0  0  0  0  0  0  0  0  0  0  0
    1.1173   -5.3386   32.1742 C   0  0  0  0  0  0  0  0  0  0  0  0
    2.2921   -4.6287   32.0107 N   0  0  0  0  0  0  0  0  0  0  0  0
    2.7648   -3.5077   32.8433 C   0  0  0  0  0  0  0  0  0  0  0  0
    1.8888   -2.3132   32.7583 C   0  0  0  0  0  0  0  0  0  0  0  0
    1.9923   -1.1339   33.3279 N   0  0  0  0  0  0  0  0  0  0  0  0
    1.1261   -0.2836   32.6612 N   0  0  0  0  0  0  0  0  0  0  0  0
    0.5177   -0.9788   31.7179 C   0  0  0  0  0  0  0  0  0  0  0  0
   -0.0873   -0.5303   30.4776 C   0  0  0  0  0  0  0  0  0  0  0  0
    0.4135    0.6313   29.8830 C   0  0  0  0  0  0  0  0  0  0  0  0
    0.0450    0.9683   28.5841 C   0  0  0  0  0  0  0  0  0  0  0  0
   -0.8334    0.1516   27.8770 C   0  0  0  0  0  0  0  0  0  0  0  0
   -1.3583   -0.9939   28.4675 C   0  0  0  0  0  0  0  0  0  0  0  0
   -0.9970   -1.3313   29.7693 C   0  0  0  0  0  0  0  0  0  0  0  0
    0.8211   -2.2912   31.9069 N   0  0  0  0  0  0  0  0  0  0  0  0
    0.5807   -6.1099   31.2032 C   0  0  0  0  0  0  0  0  0  0  0  0
   -0.4966   -6.9845   31.4997 C   0  0  0  0  0  0  0  0  0  0  0  0
   -1.1076   -7.9008   30.7848 N   0  0  0  0  0  0  0  0  0  0  0  0
   -1.9400   -8.5905   31.6267 N   0  0  0  0  0  0  0  0  0  0  0  0
   -1.8428   -8.0613   32.8247 C   0  0  0  0  0  0  0  0  0  0  0  0
   -0.9841   -7.0006   32.7978 N   0  0  0  0  0  0  0  0  0  0  0  0
    0.1251   -6.7919   37.6109 N   0  0  0  0  0  0  0  0  0  0  0  0
    1.1897   -7.4610   38.2352 C   0  0  0  0  0  0  0  0  0  0  0  0
    1.3453   -7.5597   39.6336 C   0  0  0  0  0  0  0  0  0  0  0  0
    2.4775   -8.2856   39.9520 C   0  0  0  0  0  0  0  0  0  0  0  0
    3.3322   -8.8102   38.5516 S   0  0  0  0  0  0  0  0  0  0  0  0
    2.1773   -8.1048   37.5395 C   0  0  0  0  0  0  0  0  0  0  0  0
    0.9782   -7.6737   34.5873 H   0  0  0  0  0  0  0  0  0  0  0  0
    0.8186   -4.5779   34.2274 H   0  0  0  0  0  0  0  0  0  0  0  0
    2.6869   -4.6272   31.0716 H   0  0  0  0  0  0  0  0  0  0  0  0
    2.8810   -3.8270   33.8846 H   0  0  0  0  0  0  0  0  0  0  0  0
    3.7668   -3.2316   32.4948 H   0  0  0  0  0  0  0  0  0  0  0  0
    1.1309    1.2563   30.4122 H   0  0  0  0  0  0  0  0  0  0  0  0
    0.4439    1.8662   28.1196 H   0  0  0  0  0  0  0  0  0  0  0  0
   -1.1272    0.4090   26.8624 H   0  0  0  0  0  0  0  0  0  0  0  0
   -2.0428   -1.6240   27.9013 H   0  0  0  0  0  0  0  0  0  0  0  0
   -1.4141   -2.2368   30.1994 H   0  0  0  0  0  0  0  0  0  0  0  0
    0.5867   -3.0344   31.2705 H   0  0  0  0  0  0  0  0  0  0  0  0
    1.0203   -6.1743   30.2145 H   0  0  0  0  0  0  0  0  0  0  0  0
   -2.3544   -8.4097   33.7109 H   0  0  0  0  0  0  0  0  0  0  0  0
    0.6716   -7.1360   40.3672 H   0  0  0  0  0  0  0  0  0  0  0  0
    2.8520   -8.5303   40.9364 H   0  0  0  0  0  0  0  0  0  0  0  0
  1  2  2  0
  2  3  1  0
  3  4  1  0
  4  5  1  0
  5  6  1  0
  6  7  2  0
  7  8  1  0
  8  9  1  0
  9 10  1  0
 10 11  1  0
 11 12  2  0
 12 13  1  0
 13 14  2  0
 14 15  1  0
 15 16  2  0
 16 17  1  0
 17 18  2  0
 18 19  1  0
 19 20  2  0
 14 21  1  0
  8 22  2  0
 22 23  1  0
 23 24  2  0
 24 25  1  0
 25 26  2  0
 26 27  1  0
  4 28  2  0
 28 29  1  0
 29 30  1  0
 30 31  2  0
 31 32  1  0
 32 33  1  0
 33  2  1  0
 27  6  1  0
 33 29  2  0
 21 11  1  0
 27 23  1  0
 20 15  1  0
  3 34  1  0
  7 35  1  0
  9 36  1  0
 10 37  1  0
 10 38  1  0
 16 39  1  0
 17 40  1  0
 18 41  1  0
 19 42  1  0
 20 43  1  0
 21 44  1  0
 22 45  1  0
 26 46  1  0
 30 47  1  0
 31 48  1  0
M  END
>  <Energy>  (175) 
-21.172969495926083

>  <compound_id>  (175) 
2445

>  <target_id>  (175) 
1

>  <reference_id>  (175) 
166

>  <inspiration_ids>  (175) 
[166, 135]

>  <energy_score>  (175) 
-40.156021074321046

>  <distance_score>  (175) 
0.9041053959539557

>  <path>  (175) 
/opt/xchem-fragalysis-2/maxwin/BulkDock/SCRATCH/505736/C2445-P166/C2445-P166.minimised.mol

>  <scratch_subdir>  (175) 
/opt/xchem-fragalysis-2/maxwin/BulkDock/SCRATCH/505736/C2445-P166

>  <fragmenstein_runtime>  (175) 
3.962188482284546

>  <fragmenstein_outcome>  (175) 
acceptable

>  <fragmenstein_mode>  (175) 
expansion

>  <fragmenstein_error>  (175) 


$$$$
C2445-P135
     RDKit          3D

 48 53  0  0  0  0  0  0  0  0999 V2000
    3.4515   -8.2707   35.4414 O   0  0  0  0  0  0  0  0  0  0  0  0
    2.5629   -7.8343   36.1717 C   0  0  0  0  0  0  0  0  0  0  0  0
    1.4779   -7.2436   35.5907 N   0  0  0  0  0  0  0  0  0  0  0  0
    0.3786   -6.8235   36.2945 C   0  0  0  0  0  0  0  0  0  0  0  0
   -0.9262   -6.1689   35.3412 S   0  0  0  0  0  0  0  0  0  0  0  0
   -0.3271   -6.0845   33.7245 C   0  0  0  0  0  0  0  0  0  0  0  0
    0.6469   -5.2139   33.4090 C   0  0  0  0  0  0  0  0  0  0  0  0
    1.3028   -5.2664   32.1024 C   0  0  0  0  0  0  0  0  0  0  0  0
    2.4727   -4.5468   31.9408 N   0  0  0  0  0  0  0  0  0  0  0  0
    2.9247   -3.4131   32.7705 C   0  0  0  0  0  0  0  0  0  0  0  0
    2.0011   -2.2525   32.7181 C   0  0  0  0  0  0  0  0  0  0  0  0
    2.0443   -1.0910   33.3304 N   0  0  0  0  0  0  0  0  0  0  0  0
    1.1293   -0.2636   32.6990 N   0  0  0  0  0  0  0  0  0  0  0  0
    0.5493   -0.9565   31.7369 C   0  0  0  0  0  0  0  0  0  0  0  0
   -0.1036   -0.5077   30.5231 C   0  0  0  0  0  0  0  0  0  0  0  0
    0.3419    0.6789   29.9354 C   0  0  0  0  0  0  0  0  0  0  0  0
   -0.0718    1.0205   28.6521 C   0  0  0  0  0  0  0  0  0  0  0  0
   -0.9386    0.1823   27.9562 C   0  0  0  0  0  0  0  0  0  0  0  0
   -1.4029   -0.9932   28.5382 C   0  0  0  0  0  0  0  0  0  0  0  0
   -0.9991   -1.3338   29.8251 C   0  0  0  0  0  0  0  0  0  0  0  0
    0.9358   -2.2529   31.8651 N   0  0  0  0  0  0  0  0  0  0  0  0
    0.7647   -6.0320   31.1277 C   0  0  0  0  0  0  0  0  0  0  0  0
   -0.3109   -6.9087   31.4221 C   0  0  0  0  0  0  0  0  0  0  0  0
   -0.9426   -7.8040   30.6970 N   0  0  0  0  0  0  0  0  0  0  0  0
   -1.7718   -8.4995   31.5354 N   0  0  0  0  0  0  0  0  0  0  0  0
   -1.6427   -7.9989   32.7425 C   0  0  0  0  0  0  0  0  0  0  0  0
   -0.7743   -6.9495   32.7284 N   0  0  0  0  0  0  0  0  0  0  0  0
    0.2304   -6.8915   37.5780 N   0  0  0  0  0  0  0  0  0  0  0  0
    1.3139   -7.4843   38.2411 C   0  0  0  0  0  0  0  0  0  0  0  0
    1.3447   -7.7372   39.6277 C   0  0  0  0  0  0  0  0  0  0  0  0
    2.5188   -8.3731   39.9839 C   0  0  0  0  0  0  0  0  0  0  0  0
    3.5620   -8.6221   38.6361 S   0  0  0  0  0  0  0  0  0  0  0  0
    2.4344   -7.9231   37.5894 C   0  0  0  0  0  0  0  0  0  0  0  0
    1.5327   -7.1872   34.5939 H   0  0  0  0  0  0  0  0  0  0  0  0
    1.0060   -4.5154   34.1599 H   0  0  0  0  0  0  0  0  0  0  0  0
    2.8608   -4.5330   30.9987 H   0  0  0  0  0  0  0  0  0  0  0  0
    3.0753   -3.7378   33.8058 H   0  0  0  0  0  0  0  0  0  0  0  0
    3.9071   -3.0971   32.4011 H   0  0  0  0  0  0  0  0  0  0  0  0
    1.0497    1.3212   30.4564 H   0  0  0  0  0  0  0  0  0  0  0  0
    0.2807    1.9393   28.1910 H   0  0  0  0  0  0  0  0  0  0  0  0
   -1.2738    0.4472   26.9569 H   0  0  0  0  0  0  0  0  0  0  0  0
   -2.0765   -1.6399   27.9776 H   0  0  0  0  0  0  0  0  0  0  0  0
   -1.3699   -2.2603   30.2527 H   0  0  0  0  0  0  0  0  0  0  0  0
    0.7389   -2.9813   31.1993 H   0  0  0  0  0  0  0  0  0  0  0  0
    1.1982   -6.0842   30.1354 H   0  0  0  0  0  0  0  0  0  0  0  0
   -2.1436   -8.3511   33.6311 H   0  0  0  0  0  0  0  0  0  0  0  0
    0.5535   -7.4980   40.3263 H   0  0  0  0  0  0  0  0  0  0  0  0
    2.8162   -8.7107   40.9675 H   0  0  0  0  0  0  0  0  0  0  0  0
  1  2  2  0
  2  3  1  0
  3  4  1  0
  4  5  1  0
  5  6  1  0
  6  7  2  0
  7  8  1  0
  8  9  1  0
  9 10  1  0
 10 11  1  0
 11 12  2  0
 12 13  1  0
 13 14  2  0
 14 15  1  0
 15 16  2  0
 16 17  1  0
 17 18  2  0
 18 19  1  0
 19 20  2  0
 14 21  1  0
  8 22  2  0
 22 23  1  0
 23 24  2  0
 24 25  1  0
 25 26  2  0
 26 27  1  0
  4 28  2  0
 28 29  1  0
 29 30  1  0
 30 31  2  0
 31 32  1  0
 32 33  1  0
 33  2  1  0
 27  6  1  0
 33 29  2  0
 21 11  1  0
 27 23  1  0
 20 15  1  0
  3 34  1  0
  7 35  1  0
  9 36  1  0
 10 37  1  0
 10 38  1  0
 16 39  1  0
 17 40  1  0
 18 41  1  0
 19 42  1  0
 20 43  1  0
 21 44  1  0
 22 45  1  0
 26 46  1  0
 30 47  1  0
 31 48  1  0
M  END
>  <Energy>  (176) 
-20.607059823983072

>  <compound_id>  (176) 
2445

>  <target_id>  (176) 
1

>  <reference_id>  (176) 
135

>  <inspiration_ids>  (176) 
[166, 135]

>  <energy_score>  (176) 
-39.590111402379634

>  <distance_score>  (176) 
0.9703924852482871

>  <path>  (176) 
/opt/xchem-fragalysis-2/maxwin/BulkDock/SCRATCH/505736/C2445-P135/C2445-P135.minimised.mol

>  <scratch_subdir>  (176) 
/opt/xchem-fragalysis-2/maxwin/BulkDock/SCRATCH/505736/C2445-P135

>  <fragmenstein_runtime>  (176) 
3.981762170791626

>  <fragmenstein_outcome>  (176) 
acceptable

>  <fragmenstein_mode>  (176) 
expansion

>  <fragmenstein_error>  (176) 


$$$$
C2449-P166
     RDKit          3D

 44 48  0  0  0  0  0  0  0  0999 V2000
   -1.3152   -7.7725   34.3897 N   0  0  0  0  0  0  0  0  0  0  0  0
   -1.1991   -7.5742   33.0663 C   0  0  0  0  0  0  0  0  0  0  0  0
   -1.5112   -8.4477   32.1389 N   0  0  0  0  0  0  0  0  0  0  0  0
   -1.0710   -7.9809   30.9381 N   0  0  0  0  0  0  0  0  0  0  0  0
   -0.4661   -6.8391   31.1626 C   0  0  0  0  0  0  0  0  0  0  0  0
   -0.6000   -6.4803   32.4865 N   0  0  0  0  0  0  0  0  0  0  0  0
    0.0436   -5.2516   33.0161 C   0  0  0  0  0  0  0  0  0  0  0  0
   -0.4156   -4.8065   34.7273 S   0  0  0  0  0  0  0  0  0  0  0  0
    0.4638   -5.9467   35.7718 C   0  0  0  0  0  0  0  0  0  0  0  0
    0.2780   -5.8675   37.0559 N   0  0  0  0  0  0  0  0  0  0  0  0
    1.0225   -6.7990   37.8084 C   0  0  0  0  0  0  0  0  0  0  0  0
    0.9596   -6.9223   39.2155 C   0  0  0  0  0  0  0  0  0  0  0  0
    1.8235   -7.9030   39.6690 C   0  0  0  0  0  0  0  0  0  0  0  0
    2.7073   -8.6320   38.3854 S   0  0  0  0  0  0  0  0  0  0  0  0
    1.8887   -7.6931   37.2421 C   0  0  0  0  0  0  0  0  0  0  0  0
    2.0456   -7.7871   35.8310 C   0  0  0  0  0  0  0  0  0  0  0  0
    2.7223   -8.5847   35.1814 O   0  0  0  0  0  0  0  0  0  0  0  0
    1.3140   -6.8399   35.1609 N   0  0  0  0  0  0  0  0  0  0  0  0
    0.0807   -4.1058   31.8485 C   0  0  0  0  0  0  0  0  0  0  0  0
    0.9290   -4.7971   30.7339 C   0  0  0  0  0  0  0  0  0  0  0  0
    0.2378   -6.0188   30.1621 C   0  0  0  0  0  0  0  0  0  0  0  0
    0.7959   -2.7505   32.2219 C   0  0  0  0  0  0  0  0  0  0  0  0
    0.4455   -1.5503   31.4341 N   0  0  0  0  0  0  0  0  0  0  0  0
   -0.0781   -1.8272   30.1012 C   0  0  0  0  0  0  0  0  0  0  0  0
   -1.1863   -2.8962   30.1158 C   0  0  0  0  0  0  0  0  0  0  0  0
   -1.2716   -3.7409   31.3451 N   0  0  0  0  0  0  0  0  0  0  0  0
   -1.6372   -8.7259   34.6271 H   0  0  0  0  0  0  0  0  0  0  0  0
   -1.8774   -7.0976   34.9024 H   0  0  0  0  0  0  0  0  0  0  0  0
    1.1007   -5.5251   33.0979 H   0  0  0  0  0  0  0  0  0  0  0  0
    0.3242   -6.3314   39.8626 H   0  0  0  0  0  0  0  0  0  0  0  0
    1.9883   -8.2219   40.6889 H   0  0  0  0  0  0  0  0  0  0  0  0
    1.2327   -7.0558   34.1892 H   0  0  0  0  0  0  0  0  0  0  0  0
    1.8981   -5.1029   31.1546 H   0  0  0  0  0  0  0  0  0  0  0  0
    1.1969   -4.1327   29.9089 H   0  0  0  0  0  0  0  0  0  0  0  0
    0.9847   -6.6326   29.6508 H   0  0  0  0  0  0  0  0  0  0  0  0
   -0.4930   -5.6955   29.4232 H   0  0  0  0  0  0  0  0  0  0  0  0
    0.5709   -2.4949   33.2622 H   0  0  0  0  0  0  0  0  0  0  0  0
    1.8825   -2.8931   32.1706 H   0  0  0  0  0  0  0  0  0  0  0  0
    1.2255   -0.8963   31.3924 H   0  0  0  0  0  0  0  0  0  0  0  0
    0.7417   -2.1310   29.4420 H   0  0  0  0  0  0  0  0  0  0  0  0
   -0.4806   -0.8994   29.6790 H   0  0  0  0  0  0  0  0  0  0  0  0
   -1.0883   -3.5287   29.2285 H   0  0  0  0  0  0  0  0  0  0  0  0
   -2.1555   -2.3961   30.0198 H   0  0  0  0  0  0  0  0  0  0  0  0
   -1.6821   -3.1257   32.0603 H   0  0  0  0  0  0  0  0  0  0  0  0
  1  2  1  0
  2  3  2  0
  3  4  1  0
  4  5  2  0
  5  6  1  0
  6  7  1  0
  7  8  1  0
  8  9  1  0
  9 10  2  0
 10 11  1  0
 11 12  1  0
 12 13  2  0
 13 14  1  0
 14 15  1  0
 15 16  1  0
 16 17  2  0
 16 18  1  0
  7 19  1  0
 19 20  1  0
 20 21  1  0
 19 22  1  0
 22 23  1  0
 23 24  1  0
 24 25  1  0
 25 26  1  0
  6  2  1  0
 18  9  1  0
 26 19  1  0
 21  5  1  0
 15 11  2  0
  1 27  1  0
  1 28  1  0
  7 29  1  0
 12 30  1  0
 13 31  1  0
 18 32  1  0
 20 33  1  0
 20 34  1  0
 21 35  1  0
 21 36  1  0
 22 37  1  0
 22 38  1  0
 23 39  1  0
 24 40  1  0
 24 41  1  0
 25 42  1  0
 25 43  1  0
 26 44  1  0
M  END
>  <Energy>  (177) 
24.600485327190924

>  <compound_id>  (177) 
2449

>  <target_id>  (177) 
1

>  <reference_id>  (177) 
166

>  <inspiration_ids>  (177) 
[166, 147]

>  <energy_score>  (177) 
-70.26059266898693

>  <distance_score>  (177) 
2.2187376221838244

>  <path>  (177) 
/opt/xchem-fragalysis-2/maxwin/BulkDock/SCRATCH/505736/C2449-P166/C2449-P166.minimised.mol

>  <scratch_subdir>  (177) 
/opt/xchem-fragalysis-2/maxwin/BulkDock/SCRATCH/505736/C2449-P166

>  <fragmenstein_runtime>  (177) 
8.892038822174072

>  <fragmenstein_outcome>  (177) 
too moved

>  <fragmenstein_mode>  (177) 
expansion

>  <fragmenstein_error>  (177) 


$$$$
C2449-P147
     RDKit          3D

 44 48  0  0  0  0  0  0  0  0999 V2000
   -1.2164   -7.5012   34.4820 N   0  0  0  0  0  0  0  0  0  0  0  0
   -1.1223   -7.3957   33.1489 C   0  0  0  0  0  0  0  0  0  0  0  0
   -1.4990   -8.3130   32.2883 N   0  0  0  0  0  0  0  0  0  0  0  0
   -1.1072   -7.9315   31.0427 N   0  0  0  0  0  0  0  0  0  0  0  0
   -0.4661   -6.7963   31.1753 C   0  0  0  0  0  0  0  0  0  0  0  0
   -0.5340   -6.3567   32.4793 N   0  0  0  0  0  0  0  0  0  0  0  0
    0.1644   -5.1252   32.8964 C   0  0  0  0  0  0  0  0  0  0  0  0
   -0.1281   -4.5444   34.6005 S   0  0  0  0  0  0  0  0  0  0  0  0
    0.6668   -5.7191   35.6611 C   0  0  0  0  0  0  0  0  0  0  0  0
    0.1909   -5.8868   36.8606 N   0  0  0  0  0  0  0  0  0  0  0  0
    0.9340   -6.7811   37.6582 C   0  0  0  0  0  0  0  0  0  0  0  0
    0.6830   -7.0406   39.0254 C   0  0  0  0  0  0  0  0  0  0  0  0
    1.6117   -7.9260   39.5430 C   0  0  0  0  0  0  0  0  0  0  0  0
    2.7993   -8.3692   38.3803 S   0  0  0  0  0  0  0  0  0  0  0  0
    2.0004   -7.4884   37.1767 C   0  0  0  0  0  0  0  0  0  0  0  0
    2.3937   -7.4026   35.8098 C   0  0  0  0  0  0  0  0  0  0  0  0
    3.1581   -8.1350   35.1813 O   0  0  0  0  0  0  0  0  0  0  0  0
    1.7684   -6.3706   35.1565 N   0  0  0  0  0  0  0  0  0  0  0  0
    0.1699   -4.0345   31.6762 C   0  0  0  0  0  0  0  0  0  0  0  0
    0.9134   -4.7877   30.5285 C   0  0  0  0  0  0  0  0  0  0  0  0
    0.2138   -6.0631   30.0975 C   0  0  0  0  0  0  0  0  0  0  0  0
    1.0039   -2.7313   31.9644 C   0  0  0  0  0  0  0  0  0  0  0  0
    1.1193   -1.7751   30.8420 N   0  0  0  0  0  0  0  0  0  0  0  0
   -0.1406   -1.6435   30.1017 C   0  0  0  0  0  0  0  0  0  0  0  0
   -1.3316   -2.2350   30.8679 C   0  0  0  0  0  0  0  0  0  0  0  0
   -1.1938   -3.6747   31.1810 N   0  0  0  0  0  0  0  0  0  0  0  0
   -1.6214   -8.3979   34.7765 H   0  0  0  0  0  0  0  0  0  0  0  0
   -1.6338   -6.7238   34.9936 H   0  0  0  0  0  0  0  0  0  0  0  0
    1.2082   -5.4420   32.9024 H   0  0  0  0  0  0  0  0  0  0  0  0
   -0.1241   -6.6098   39.6038 H   0  0  0  0  0  0  0  0  0  0  0  0
    1.6644   -8.3228   40.5481 H   0  0  0  0  0  0  0  0  0  0  0  0
    2.1055   -6.2459   34.2269 H   0  0  0  0  0  0  0  0  0  0  0  0
    1.9310   -5.0374   30.8609 H   0  0  0  0  0  0  0  0  0  0  0  0
    1.0506   -4.1634   29.6381 H   0  0  0  0  0  0  0  0  0  0  0  0
    0.9497   -6.7213   29.6335 H   0  0  0  0  0  0  0  0  0  0  0  0
   -0.5319   -5.8175   29.3408 H   0  0  0  0  0  0  0  0  0  0  0  0
    2.0187   -3.0074   32.2770 H   0  0  0  0  0  0  0  0  0  0  0  0
    0.5701   -2.1961   32.8183 H   0  0  0  0  0  0  0  0  0  0  0  0
    1.8626   -2.0401   30.1988 H   0  0  0  0  0  0  0  0  0  0  0  0
   -0.0494   -2.1424   29.1293 H   0  0  0  0  0  0  0  0  0  0  0  0
   -0.3210   -0.5827   29.8984 H   0  0  0  0  0  0  0  0  0  0  0  0
   -2.2361   -2.1042   30.2692 H   0  0  0  0  0  0  0  0  0  0  0  0
   -1.5039   -1.6802   31.7986 H   0  0  0  0  0  0  0  0  0  0  0  0
   -1.3475   -4.1274   30.2820 H   0  0  0  0  0  0  0  0  0  0  0  0
  1  2  1  0
  2  3  2  0
  3  4  1  0
  4  5  2  0
  5  6  1  0
  6  7  1  0
  7  8  1  0
  8  9  1  0
  9 10  2  0
 10 11  1  0
 11 12  1  0
 12 13  2  0
 13 14  1  0
 14 15  1  0
 15 16  1  0
 16 17  2  0
 16 18  1  0
  7 19  1  0
 19 20  1  0
 20 21  1  0
 19 22  1  0
 22 23  1  0
 23 24  1  0
 24 25  1  0
 25 26  1  0
  6  2  1  0
 18  9  1  0
 26 19  1  0
 21  5  1  0
 15 11  2  0
  1 27  1  0
  1 28  1  0
  7 29  1  0
 12 30  1  0
 13 31  1  0
 18 32  1  0
 20 33  1  0
 20 34  1  0
 21 35  1  0
 21 36  1  0
 22 37  1  0
 22 38  1  0
 23 39  1  0
 24 40  1  0
 24 41  1  0
 25 42  1  0
 25 43  1  0
 26 44  1  0
M  END
>  <Energy>  (178) 
24.352804750544188

>  <compound_id>  (178) 
2449

>  <target_id>  (178) 
1

>  <reference_id>  (178) 
147

>  <inspiration_ids>  (178) 
[166, 147]

>  <energy_score>  (178) 
-70.50827324563488

>  <distance_score>  (178) 
2.2437310936276975

>  <path>  (178) 
/opt/xchem-fragalysis-2/maxwin/BulkDock/SCRATCH/505736/C2449-P147/C2449-P147.minimised.mol

>  <scratch_subdir>  (178) 
/opt/xchem-fragalysis-2/maxwin/BulkDock/SCRATCH/505736/C2449-P147

>  <fragmenstein_runtime>  (178) 
8.760980129241943

>  <fragmenstein_outcome>  (178) 
too moved

>  <fragmenstein_mode>  (178) 
expansion

>  <fragmenstein_error>  (178) 


$$$$
C2449-P166
     RDKit          2D

  0  0  0  0  0  0  0  0  0  0999 V2000
M  END
>  <compound_id>  (179) 
2449

>  <target_id>  (179) 
1

>  <reference_id>  (179) 
166

>  <inspiration_ids>  (179) 
[166, 148]

>  <energy_score>  (179) 
nan

>  <distance_score>  (179) 
nan

>  <path>  (179) 
/opt/xchem-fragalysis-2/maxwin/BulkDock/SCRATCH/505736/C2449-P166/C2449-P166.minimised.mol

>  <scratch_subdir>  (179) 
/opt/xchem-fragalysis-2/maxwin/BulkDock/SCRATCH/505736/C2449-P166

>  <fragmenstein_runtime>  (179) 
0.13444948196411133

>  <fragmenstein_outcome>  (179) 
too distant

>  <fragmenstein_mode>  (179) 
expansion

>  <fragmenstein_error>  (179) 
DistanceError: hit0+hit1

$$$$
C2458-P166
     RDKit          3D

 49 53  0  0  0  0  0  0  0  0999 V2000
    3.0250   -8.5182   35.1878 O   0  0  0  0  0  0  0  0  0  0  0  0
    2.1397   -8.0547   35.8986 C   0  0  0  0  0  0  0  0  0  0  0  0
    1.0484   -7.4361   35.3124 N   0  0  0  0  0  0  0  0  0  0  0  0
    0.0723   -7.0516   36.0722 C   0  0  0  0  0  0  0  0  0  0  0  0
   -1.3706   -6.3730   35.3208 S   0  0  0  0  0  0  0  0  0  0  0  0
   -0.8243   -6.0539   33.7223 C   0  0  0  0  0  0  0  0  0  0  0  0
   -0.2145   -4.8932   33.4578 C   0  0  0  0  0  0  0  0  0  0  0  0
    0.6410   -4.7723   32.2886 C   0  0  0  0  0  0  0  0  0  0  0  0
    1.6958   -3.6857   32.4273 C   0  0  0  0  0  0  0  0  0  0  0  0
    2.7551   -3.8746   33.5690 C   0  0  0  0  0  0  0  0  0  0  0  0
    2.1634   -4.4274   34.8191 N   0  0  0  0  0  0  0  0  0  0  0  0
    2.6947   -3.9234   36.3447 S   0  0  0  0  0  0  0  0  0  0  0  0
    3.2854   -5.1019   36.9429 O   0  0  0  0  0  0  0  0  0  0  0  0
    3.3827   -2.6611   36.2281 O   0  0  0  0  0  0  0  0  0  0  0  0
    1.1526   -3.6251   37.2004 C   0  0  0  0  0  0  0  0  0  0  0  0
    0.9386   -4.1154   38.4917 C   0  0  0  0  0  0  0  0  0  0  0  0
   -0.3329   -4.0106   39.0746 C   0  0  0  0  0  0  0  0  0  0  0  0
   -1.3758   -3.4328   38.3610 C   0  0  0  0  0  0  0  0  0  0  0  0
   -2.6366   -3.3504   38.8664 O   0  0  0  0  0  0  0  0  0  0  0  0
   -1.1531   -2.9033   37.1005 C   0  0  0  0  0  0  0  0  0  0  0  0
    0.1184   -2.9761   36.5295 C   0  0  0  0  0  0  0  0  0  0  0  0
    0.4934   -5.6445   31.2655 C   0  0  0  0  0  0  0  0  0  0  0  0
   -0.3831   -6.7646   31.4285 C   0  0  0  0  0  0  0  0  0  0  0  0
   -0.7633   -7.7356   30.6251 N   0  0  0  0  0  0  0  0  0  0  0  0
   -1.5215   -8.6186   31.3614 N   0  0  0  0  0  0  0  0  0  0  0  0
   -1.5898   -8.1663   32.5923 C   0  0  0  0  0  0  0  0  0  0  0  0
   -0.9319   -6.9754   32.6890 N   0  0  0  0  0  0  0  0  0  0  0  0
   -0.0025   -7.0970   37.4372 N   0  0  0  0  0  0  0  0  0  0  0  0
    1.0377   -7.6563   38.0747 C   0  0  0  0  0  0  0  0  0  0  0  0
    1.1939   -7.8494   39.4652 C   0  0  0  0  0  0  0  0  0  0  0  0
    2.4036   -8.4561   39.7421 C   0  0  0  0  0  0  0  0  0  0  0  0
    3.3188   -8.7657   38.3185 S   0  0  0  0  0  0  0  0  0  0  0  0
    2.0961   -8.1163   37.3396 C   0  0  0  0  0  0  0  0  0  0  0  0
   -0.2053   -4.0910   34.1785 H   0  0  0  0  0  0  0  0  0  0  0  0
    1.1786   -2.7312   32.5971 H   0  0  0  0  0  0  0  0  0  0  0  0
    2.2368   -3.5662   31.4801 H   0  0  0  0  0  0  0  0  0  0  0  0
    3.5280   -4.5735   33.2290 H   0  0  0  0  0  0  0  0  0  0  0  0
    3.2313   -2.9067   33.7489 H   0  0  0  0  0  0  0  0  0  0  0  0
    2.1577   -5.4533   34.8004 H   0  0  0  0  0  0  0  0  0  0  0  0
    1.7456   -4.6027   39.0356 H   0  0  0  0  0  0  0  0  0  0  0  0
   -0.4934   -4.3946   40.0783 H   0  0  0  0  0  0  0  0  0  0  0  0
   -2.7809   -4.0645   39.5183 H   0  0  0  0  0  0  0  0  0  0  0  0
   -1.9657   -2.4228   36.5601 H   0  0  0  0  0  0  0  0  0  0  0  0
    0.2916   -2.5214   35.5580 H   0  0  0  0  0  0  0  0  0  0  0  0
    1.0950   -5.5885   30.3656 H   0  0  0  0  0  0  0  0  0  0  0  0
   -2.1129   -8.6341   33.4129 H   0  0  0  0  0  0  0  0  0  0  0  0
   -0.8272   -6.7204   37.8869 H   0  0  0  0  0  0  0  0  0  0  0  0
    0.4776   -7.5780   40.2292 H   0  0  0  0  0  0  0  0  0  0  0  0
    2.8023   -8.7343   40.7080 H   0  0  0  0  0  0  0  0  0  0  0  0
  1  2  2  0
  2  3  1  0
  3  4  2  0
  4  5  1  0
  5  6  1  0
  6  7  2  0
  7  8  1  0
  8  9  1  0
  9 10  1  0
 10 11  1  0
 11 12  1  0
 12 13  2  0
 12 14  2  0
 12 15  1  0
 15 16  2  0
 16 17  1  0
 17 18  2  0
 18 19  1  0
 18 20  1  0
 20 21  2  0
  8 22  2  0
 22 23  1  0
 23 24  2  0
 24 25  1  0
 25 26  2  0
 26 27  1  0
  4 28  1  0
 28 29  1  0
 29 30  1  0
 30 31  2  0
 31 32  1  0
 32 33  1  0
 33  2  1  0
 27  6  1  0
 33 29  2  0
 21 15  1  0
 27 23  1  0
  7 34  1  0
  9 35  1  0
  9 36  1  0
 10 37  1  0
 10 38  1  0
 11 39  1  0
 16 40  1  0
 17 41  1  0
 19 42  1  0
 20 43  1  0
 21 44  1  0
 22 45  1  0
 26 46  1  0
 28 47  1  0
 30 48  1  0
 31 49  1  0
M  END
>  <Energy>  (180) 
-47.322406734452365

>  <compound_id>  (180) 
2458

>  <target_id>  (180) 
1

>  <reference_id>  (180) 
166

>  <inspiration_ids>  (180) 
[166, 168]

>  <energy_score>  (180) 
-80.14441964838876

>  <distance_score>  (180) 
1.079199398870676

>  <path>  (180) 
/opt/xchem-fragalysis-2/maxwin/BulkDock/SCRATCH/505736/C2458-P166/C2458-P166.minimised.mol

>  <scratch_subdir>  (180) 
/opt/xchem-fragalysis-2/maxwin/BulkDock/SCRATCH/505736/C2458-P166

>  <fragmenstein_runtime>  (180) 
5.520303726196289

>  <fragmenstein_outcome>  (180) 
too moved

>  <fragmenstein_mode>  (180) 
expansion

>  <fragmenstein_error>  (180) 


$$$$
C2458-P168
     RDKit          3D

 49 53  0  0  0  0  0  0  0  0999 V2000
    3.3786   -8.0504   35.1881 O   0  0  0  0  0  0  0  0  0  0  0  0
    2.4507   -7.6933   35.9070 C   0  0  0  0  0  0  0  0  0  0  0  0
    1.2639   -7.2858   35.3310 N   0  0  0  0  0  0  0  0  0  0  0  0
    0.2642   -6.9909   36.0968 C   0  0  0  0  0  0  0  0  0  0  0  0
   -1.2552   -6.5531   35.3325 S   0  0  0  0  0  0  0  0  0  0  0  0
   -0.7213   -6.0798   33.7587 C   0  0  0  0  0  0  0  0  0  0  0  0
   -0.1283   -4.8939   33.5780 C   0  0  0  0  0  0  0  0  0  0  0  0
    0.6437   -4.6185   32.3806 C   0  0  0  0  0  0  0  0  0  0  0  0
    1.6940   -3.5184   32.4834 C   0  0  0  0  0  0  0  0  0  0  0  0
    2.0772   -2.9476   33.8887 C   0  0  0  0  0  0  0  0  0  0  0  0
    2.2635   -4.0108   34.9061 N   0  0  0  0  0  0  0  0  0  0  0  0
    2.6729   -3.5869   36.4909 S   0  0  0  0  0  0  0  0  0  0  0  0
    3.4419   -4.7241   36.9561 O   0  0  0  0  0  0  0  0  0  0  0  0
    3.1918   -2.2402   36.4857 O   0  0  0  0  0  0  0  0  0  0  0  0
    1.1748   -3.5973   37.4585 C   0  0  0  0  0  0  0  0  0  0  0  0
    1.2775   -3.9205   38.8137 C   0  0  0  0  0  0  0  0  0  0  0  0
    0.1286   -3.9976   39.6009 C   0  0  0  0  0  0  0  0  0  0  0  0
   -1.1242   -3.8021   39.0364 C   0  0  0  0  0  0  0  0  0  0  0  0
   -2.1921   -3.9221   39.8692 O   0  0  0  0  0  0  0  0  0  0  0  0
   -1.2406   -3.4610   37.6993 C   0  0  0  0  0  0  0  0  0  0  0  0
   -0.0811   -3.3215   36.9198 C   0  0  0  0  0  0  0  0  0  0  0  0
    0.5089   -5.4366   31.3091 C   0  0  0  0  0  0  0  0  0  0  0  0
   -0.3235   -6.5925   31.4057 C   0  0  0  0  0  0  0  0  0  0  0  0
   -0.7020   -7.5054   30.5359 N   0  0  0  0  0  0  0  0  0  0  0  0
   -1.4647   -8.4326   31.2066 N   0  0  0  0  0  0  0  0  0  0  0  0
   -1.5282   -8.0665   32.4640 C   0  0  0  0  0  0  0  0  0  0  0  0
   -0.8484   -6.9033   32.6519 N   0  0  0  0  0  0  0  0  0  0  0  0
    0.2105   -7.0016   37.4624 N   0  0  0  0  0  0  0  0  0  0  0  0
    1.3097   -7.4424   38.0923 C   0  0  0  0  0  0  0  0  0  0  0  0
    1.4719   -7.6620   39.4769 C   0  0  0  0  0  0  0  0  0  0  0  0
    2.7313   -8.1593   39.7473 C   0  0  0  0  0  0  0  0  0  0  0  0
    3.6913   -8.3125   38.3277 S   0  0  0  0  0  0  0  0  0  0  0  0
    2.4173   -7.7608   37.3526 C   0  0  0  0  0  0  0  0  0  0  0  0
   -0.1196   -4.1774   34.3747 H   0  0  0  0  0  0  0  0  0  0  0  0
    1.3731   -2.6741   31.8599 H   0  0  0  0  0  0  0  0  0  0  0  0
    2.6189   -3.9046   32.0326 H   0  0  0  0  0  0  0  0  0  0  0  0
    3.0110   -2.3849   33.7797 H   0  0  0  0  0  0  0  0  0  0  0  0
    1.2985   -2.2536   34.2215 H   0  0  0  0  0  0  0  0  0  0  0  0
    2.8221   -4.8176   34.6156 H   0  0  0  0  0  0  0  0  0  0  0  0
    2.2487   -4.1183   39.2648 H   0  0  0  0  0  0  0  0  0  0  0  0
    0.2136   -4.2383   40.6584 H   0  0  0  0  0  0  0  0  0  0  0  0
   -2.9771   -4.2667   39.4029 H   0  0  0  0  0  0  0  0  0  0  0  0
   -2.2074   -3.2346   37.2622 H   0  0  0  0  0  0  0  0  0  0  0  0
   -0.1823   -2.9443   35.9118 H   0  0  0  0  0  0  0  0  0  0  0  0
    1.0798   -5.2896   30.3991 H   0  0  0  0  0  0  0  0  0  0  0  0
   -2.0711   -8.5670   33.2471 H   0  0  0  0  0  0  0  0  0  0  0  0
   -0.6361   -6.7074   37.9324 H   0  0  0  0  0  0  0  0  0  0  0  0
    0.7218   -7.5015   40.2407 H   0  0  0  0  0  0  0  0  0  0  0  0
    3.1410   -8.4420   40.7077 H   0  0  0  0  0  0  0  0  0  0  0  0
  1  2  2  0
  2  3  1  0
  3  4  2  0
  4  5  1  0
  5  6  1  0
  6  7  2  0
  7  8  1  0
  8  9  1  0
  9 10  1  0
 10 11  1  0
 11 12  1  0
 12 13  2  0
 12 14  2  0
 12 15  1  0
 15 16  2  0
 16 17  1  0
 17 18  2  0
 18 19  1  0
 18 20  1  0
 20 21  2  0
  8 22  2  0
 22 23  1  0
 23 24  2  0
 24 25  1  0
 25 26  2  0
 26 27  1  0
  4 28  1  0
 28 29  1  0
 29 30  1  0
 30 31  2  0
 31 32  1  0
 32 33  1  0
 33  2  1  0
 27  6  1  0
 33 29  2  0
 21 15  1  0
 27 23  1  0
  7 34  1  0
  9 35  1  0
  9 36  1  0
 10 37  1  0
 10 38  1  0
 11 39  1  0
 16 40  1  0
 17 41  1  0
 19 42  1  0
 20 43  1  0
 21 44  1  0
 22 45  1  0
 26 46  1  0
 28 47  1  0
 30 48  1  0
 31 49  1  0
M  END
>  <Energy>  (181) 
-45.718907195290903

>  <compound_id>  (181) 
2458

>  <target_id>  (181) 
1

>  <reference_id>  (181) 
168

>  <inspiration_ids>  (181) 
[166, 168]

>  <energy_score>  (181) 
-78.54092010922618

>  <distance_score>  (181) 
1.1542387130061655

>  <path>  (181) 
/opt/xchem-fragalysis-2/maxwin/BulkDock/SCRATCH/505736/C2458-P168/C2458-P168.minimised.mol

>  <scratch_subdir>  (181) 
/opt/xchem-fragalysis-2/maxwin/BulkDock/SCRATCH/505736/C2458-P168

>  <fragmenstein_runtime>  (181) 
5.729804754257202

>  <fragmenstein_outcome>  (181) 
too moved

>  <fragmenstein_mode>  (181) 
expansion

>  <fragmenstein_error>  (181) 


$$$$
C2459-P166
     RDKit          3D

 50 54  0  0  0  0  0  0  0  0999 V2000
    2.8831   -8.6177   35.1434 O   0  0  0  0  0  0  0  0  0  0  0  0
    2.1368   -7.8836   35.7817 C   0  0  0  0  0  0  0  0  0  0  0  0
    1.3405   -6.9609   35.1282 N   0  0  0  0  0  0  0  0  0  0  0  0
    0.4730   -6.2888   35.8130 C   0  0  0  0  0  0  0  0  0  0  0  0
   -0.5076   -5.0919   34.9657 S   0  0  0  0  0  0  0  0  0  0  0  0
   -0.3423   -5.5385   33.2899 C   0  0  0  0  0  0  0  0  0  0  0  0
    0.1912   -4.6817   32.3827 C   0  0  0  0  0  0  0  0  0  0  0  0
    0.2524   -5.0510   30.9566 C   0  0  0  0  0  0  0  0  0  0  0  0
    0.7158   -4.0556   29.9027 C   0  0  0  0  0  0  0  0  0  0  0  0
    2.0960   -4.3576   29.2969 C   0  0  0  0  0  0  0  0  0  0  0  0
    2.0975   -5.1190   28.0354 N   0  0  0  0  0  0  0  0  0  0  0  0
    3.2306   -6.3320   27.8698 S   0  0  0  0  0  0  0  0  0  0  0  0
    2.4696   -7.5442   27.6590 O   0  0  0  0  0  0  0  0  0  0  0  0
    4.1890   -6.2737   28.9435 O   0  0  0  0  0  0  0  0  0  0  0  0
    3.9914   -5.9381   26.4358 N   0  0  0  0  0  0  0  0  0  0  0  0
    4.8815   -4.7412   26.5054 C   0  0  0  0  0  0  0  0  0  0  0  0
    6.2322   -5.1610   25.9487 C   0  0  0  0  0  0  0  0  0  0  0  0
    6.2615   -6.6613   26.1038 C   0  0  0  0  0  0  0  0  0  0  0  0
    4.8219   -7.0533   25.8551 C   0  0  0  0  0  0  0  0  0  0  0  0
   -0.2080   -6.2544   30.5746 C   0  0  0  0  0  0  0  0  0  0  0  0
   -0.7890   -7.1433   31.4957 C   0  0  0  0  0  0  0  0  0  0  0  0
   -1.4001   -8.2879   31.3135 N   0  0  0  0  0  0  0  0  0  0  0  0
   -1.8408   -8.7036   32.5364 N   0  0  0  0  0  0  0  0  0  0  0  0
   -1.4738   -7.8158   33.4334 C   0  0  0  0  0  0  0  0  0  0  0  0
   -0.8350   -6.7687   32.8262 N   0  0  0  0  0  0  0  0  0  0  0  0
    0.2142   -6.3646   37.1594 N   0  0  0  0  0  0  0  0  0  0  0  0
    1.0330   -7.1581   37.8733 C   0  0  0  0  0  0  0  0  0  0  0  0
    1.0443   -7.3552   39.2732 C   0  0  0  0  0  0  0  0  0  0  0  0
    2.0562   -8.2220   39.6405 C   0  0  0  0  0  0  0  0  0  0  0  0
    2.9800   -8.7513   38.2904 S   0  0  0  0  0  0  0  0  0  0  0  0
    1.9919   -7.8836   37.2185 C   0  0  0  0  0  0  0  0  0  0  0  0
    0.5623   -3.7027   32.6744 H   0  0  0  0  0  0  0  0  0  0  0  0
    0.7581   -3.0619   30.3679 H   0  0  0  0  0  0  0  0  0  0  0  0
   -0.0401   -3.9755   29.1108 H   0  0  0  0  0  0  0  0  0  0  0  0
    2.7176   -4.8256   30.0663 H   0  0  0  0  0  0  0  0  0  0  0  0
    2.5786   -3.4003   29.0610 H   0  0  0  0  0  0  0  0  0  0  0  0
    1.1790   -5.4457   27.7326 H   0  0  0  0  0  0  0  0  0  0  0  0
    4.4456   -3.9263   25.9196 H   0  0  0  0  0  0  0  0  0  0  0  0
    5.0026   -4.3737   27.5295 H   0  0  0  0  0  0  0  0  0  0  0  0
    6.3152   -4.8909   24.8951 H   0  0  0  0  0  0  0  0  0  0  0  0
    7.0560   -4.6722   26.4774 H   0  0  0  0  0  0  0  0  0  0  0  0
    6.5538   -6.9269   27.1266 H   0  0  0  0  0  0  0  0  0  0  0  0
    6.9565   -7.1472   25.4131 H   0  0  0  0  0  0  0  0  0  0  0  0
    4.6215   -7.1458   24.7900 H   0  0  0  0  0  0  0  0  0  0  0  0
    4.5892   -8.0218   26.2931 H   0  0  0  0  0  0  0  0  0  0  0  0
   -0.2321   -6.5525   29.5472 H   0  0  0  0  0  0  0  0  0  0  0  0
   -1.6559   -7.8931   34.4949 H   0  0  0  0  0  0  0  0  0  0  0  0
   -0.4802   -5.7461   37.5620 H   0  0  0  0  0  0  0  0  0  0  0  0
    0.3651   -6.9019   39.9841 H   0  0  0  0  0  0  0  0  0  0  0  0
    2.3087   -8.5658   40.6342 H   0  0  0  0  0  0  0  0  0  0  0  0
  1  2  2  0
  2  3  1  0
  3  4  2  0
  4  5  1  0
  5  6  1  0
  6  7  2  0
  7  8  1  0
  8  9  1  0
  9 10  1  0
 10 11  1  0
 11 12  1  0
 12 13  2  0
 12 14  2  0
 12 15  1  0
 15 16  1  0
 16 17  1  0
 17 18  1  0
 18 19  1  0
  8 20  2  0
 20 21  1  0
 21 22  2  0
 22 23  1  0
 23 24  2  0
 24 25  1  0
  4 26  1  0
 26 27  1  0
 27 28  1  0
 28 29  2  0
 29 30  1  0
 30 31  1  0
 31  2  1  0
 25  6  1  0
 31 27  2  0
 19 15  1  0
 25 21  1  0
  7 32  1  0
  9 33  1  0
  9 34  1  0
 10 35  1  0
 10 36  1  0
 11 37  1  0
 16 38  1  0
 16 39  1  0
 17 40  1  0
 17 41  1  0
 18 42  1  0
 18 43  1  0
 19 44  1  0
 19 45  1  0
 20 46  1  0
 24 47  1  0
 26 48  1  0
 28 49  1  0
 29 50  1  0
M  END
>  <Energy>  (182) 
-178.66646904761095

>  <compound_id>  (182) 
2459

>  <target_id>  (182) 
1

>  <reference_id>  (182) 
166

>  <inspiration_ids>  (182) 
[166, 175]

>  <energy_score>  (182) 
-87.81470541221356

>  <distance_score>  (182) 
1.1325439960595989

>  <path>  (182) 
/opt/xchem-fragalysis-2/maxwin/BulkDock/SCRATCH/505736/C2459-P166/C2459-P166.minimised.mol

>  <scratch_subdir>  (182) 
/opt/xchem-fragalysis-2/maxwin/BulkDock/SCRATCH/505736/C2459-P166

>  <fragmenstein_runtime>  (182) 
5.795441389083862

>  <fragmenstein_outcome>  (182) 
too moved

>  <fragmenstein_mode>  (182) 
expansion

>  <fragmenstein_error>  (182) 


$$$$
C2459-P175
     RDKit          3D

 50 54  0  0  0  0  0  0  0  0999 V2000
    3.1161   -8.4001   35.1529 O   0  0  0  0  0  0  0  0  0  0  0  0
    2.3745   -7.6656   35.7985 C   0  0  0  0  0  0  0  0  0  0  0  0
    1.5901   -6.7233   35.1614 N   0  0  0  0  0  0  0  0  0  0  0  0
    0.6845   -6.1023   35.8452 C   0  0  0  0  0  0  0  0  0  0  0  0
   -0.2565   -4.8595   35.0250 S   0  0  0  0  0  0  0  0  0  0  0  0
   -0.2123   -5.3746   33.3643 C   0  0  0  0  0  0  0  0  0  0  0  0
    0.3552   -4.6139   32.3944 C   0  0  0  0  0  0  0  0  0  0  0  0
    0.3031   -5.0607   30.9954 C   0  0  0  0  0  0  0  0  0  0  0  0
    1.0925   -4.3966   29.8809 C   0  0  0  0  0  0  0  0  0  0  0  0
    2.1463   -5.4022   29.3953 C   0  0  0  0  0  0  0  0  0  0  0  0
    2.6695   -5.1846   28.0232 N   0  0  0  0  0  0  0  0  0  0  0  0
    3.6469   -6.4913   27.5882 S   0  0  0  0  0  0  0  0  0  0  0  0
    2.8055   -7.6666   27.5091 O   0  0  0  0  0  0  0  0  0  0  0  0
    4.7710   -6.4913   28.4930 O   0  0  0  0  0  0  0  0  0  0  0  0
    4.1626   -6.0718   26.0627 N   0  0  0  0  0  0  0  0  0  0  0  0
    5.1327   -4.9400   26.0150 C   0  0  0  0  0  0  0  0  0  0  0  0
    6.3803   -5.4547   25.3214 C   0  0  0  0  0  0  0  0  0  0  0  0
    6.2925   -6.9567   25.4284 C   0  0  0  0  0  0  0  0  0  0  0  0
    4.8051   -7.2081   25.3085 C   0  0  0  0  0  0  0  0  0  0  0  0
   -0.3913   -6.1700   30.6819 C   0  0  0  0  0  0  0  0  0  0  0  0
   -0.9714   -6.9669   31.6707 C   0  0  0  0  0  0  0  0  0  0  0  0
   -1.6510   -8.0784   31.5737 N   0  0  0  0  0  0  0  0  0  0  0  0
   -1.9689   -8.4417   32.8440 N   0  0  0  0  0  0  0  0  0  0  0  0
   -1.4523   -7.5698   33.6800 C   0  0  0  0  0  0  0  0  0  0  0  0
   -0.8388   -6.5700   32.9851 N   0  0  0  0  0  0  0  0  0  0  0  0
    0.3673   -6.2563   37.1720 N   0  0  0  0  0  0  0  0  0  0  0  0
    1.2060   -7.0277   37.8866 C   0  0  0  0  0  0  0  0  0  0  0  0
    1.1925   -7.2589   39.2812 C   0  0  0  0  0  0  0  0  0  0  0  0
    2.2465   -8.0702   39.6557 C   0  0  0  0  0  0  0  0  0  0  0  0
    3.2405   -8.5004   38.3204 S   0  0  0  0  0  0  0  0  0  0  0  0
    2.2159   -7.6876   37.2376 C   0  0  0  0  0  0  0  0  0  0  0  0
    0.8353   -3.6648   32.6145 H   0  0  0  0  0  0  0  0  0  0  0  0
    1.5792   -3.4779   30.2274 H   0  0  0  0  0  0  0  0  0  0  0  0
    0.4164   -4.1074   29.0676 H   0  0  0  0  0  0  0  0  0  0  0  0
    1.7757   -6.4275   29.4611 H   0  0  0  0  0  0  0  0  0  0  0  0
    2.9925   -5.3366   30.0933 H   0  0  0  0  0  0  0  0  0  0  0  0
    3.2088   -4.3215   27.9760 H   0  0  0  0  0  0  0  0  0  0  0  0
    4.6890   -4.0998   25.4732 H   0  0  0  0  0  0  0  0  0  0  0  0
    5.3904   -4.5684   27.0121 H   0  0  0  0  0  0  0  0  0  0  0  0
    6.3895   -5.1477   24.2720 H   0  0  0  0  0  0  0  0  0  0  0  0
    7.2845   -5.0710   25.7994 H   0  0  0  0  0  0  0  0  0  0  0  0
    6.6563   -7.2871   26.4085 H   0  0  0  0  0  0  0  0  0  0  0  0
    6.8783   -7.4668   24.6608 H   0  0  0  0  0  0  0  0  0  0  0  0
    4.4819   -7.1692   24.2677 H   0  0  0  0  0  0  0  0  0  0  0  0
    4.5286   -8.1929   25.6940 H   0  0  0  0  0  0  0  0  0  0  0  0
   -0.4863   -6.5343   29.6732 H   0  0  0  0  0  0  0  0  0  0  0  0
   -1.5110   -7.6343   34.7559 H   0  0  0  0  0  0  0  0  0  0  0  0
   -0.3457   -5.6596   37.5749 H   0  0  0  0  0  0  0  0  0  0  0  0
    0.4699   -6.8632   39.9834 H   0  0  0  0  0  0  0  0  0  0  0  0
    2.4960   -8.4182   40.6489 H   0  0  0  0  0  0  0  0  0  0  0  0
  1  2  2  0
  2  3  1  0
  3  4  2  0
  4  5  1  0
  5  6  1  0
  6  7  2  0
  7  8  1  0
  8  9  1  0
  9 10  1  0
 10 11  1  0
 11 12  1  0
 12 13  2  0
 12 14  2  0
 12 15  1  0
 15 16  1  0
 16 17  1  0
 17 18  1  0
 18 19  1  0
  8 20  2  0
 20 21  1  0
 21 22  2  0
 22 23  1  0
 23 24  2  0
 24 25  1  0
  4 26  1  0
 26 27  1  0
 27 28  1  0
 28 29  2  0
 29 30  1  0
 30 31  1  0
 31  2  1  0
 25  6  1  0
 31 27  2  0
 19 15  1  0
 25 21  1  0
  7 32  1  0
  9 33  1  0
  9 34  1  0
 10 35  1  0
 10 36  1  0
 11 37  1  0
 16 38  1  0
 16 39  1  0
 17 40  1  0
 17 41  1  0
 18 42  1  0
 18 43  1  0
 19 44  1  0
 19 45  1  0
 20 46  1  0
 24 47  1  0
 26 48  1  0
 28 49  1  0
 29 50  1  0
M  END
>  <Energy>  (183) 
-174.03731022153463

>  <compound_id>  (183) 
2459

>  <target_id>  (183) 
1

>  <reference_id>  (183) 
175

>  <inspiration_ids>  (183) 
[166, 175]

>  <energy_score>  (183) 
-83.18554658613725

>  <distance_score>  (183) 
1.1049641327071853

>  <path>  (183) 
/opt/xchem-fragalysis-2/maxwin/BulkDock/SCRATCH/505736/C2459-P175/C2459-P175.minimised.mol

>  <scratch_subdir>  (183) 
/opt/xchem-fragalysis-2/maxwin/BulkDock/SCRATCH/505736/C2459-P175

>  <fragmenstein_runtime>  (183) 
5.805734872817993

>  <fragmenstein_outcome>  (183) 
too moved

>  <fragmenstein_mode>  (183) 
expansion

>  <fragmenstein_error>  (183) 


$$$$
C2460-P166
     RDKit          3D

 48 52  0  0  0  0  0  0  0  0999 V2000
    3.2392   -7.1932   26.6080 C   0  0  0  0  0  0  0  0  0  0  0  0
    3.7246   -5.8495   26.6344 N   0  0  0  0  0  0  0  0  0  0  0  0
    4.8402   -5.4248   25.9914 C   0  0  0  0  0  0  0  0  0  0  0  0
    5.1101   -4.1683   26.4543 C   0  0  0  0  0  0  0  0  0  0  0  0
    4.1358   -3.9630   27.4367 C   0  0  0  0  0  0  0  0  0  0  0  0
    4.0719   -2.5516   28.4277 S   0  0  0  0  0  0  0  0  0  0  0  0
    4.4662   -2.9987   29.7437 O   0  0  0  0  0  0  0  0  0  0  0  0
    4.8033   -1.5360   27.7035 O   0  0  0  0  0  0  0  0  0  0  0  0
    2.4635   -2.0670   28.4318 N   0  0  0  0  0  0  0  0  0  0  0  0
    1.4097   -3.0160   28.8760 C   0  0  0  0  0  0  0  0  0  0  0  0
    1.3796   -3.2299   30.4163 C   0  0  0  0  0  0  0  0  0  0  0  0
    0.6285   -4.4081   31.0742 C   0  0  0  0  0  0  0  0  0  0  0  0
    0.3711   -4.3074   32.5308 C   0  0  0  0  0  0  0  0  0  0  0  0
   -0.2309   -5.3128   33.2131 C   0  0  0  0  0  0  0  0  0  0  0  0
   -0.6196   -5.1362   34.9029 S   0  0  0  0  0  0  0  0  0  0  0  0
    0.3954   -6.3112   35.7353 C   0  0  0  0  0  0  0  0  0  0  0  0
    1.2649   -6.9804   35.0506 N   0  0  0  0  0  0  0  0  0  0  0  0
    2.0845   -7.8778   35.7134 C   0  0  0  0  0  0  0  0  0  0  0  0
    2.8406   -8.6083   35.0821 O   0  0  0  0  0  0  0  0  0  0  0  0
    1.9518   -7.8641   37.1512 C   0  0  0  0  0  0  0  0  0  0  0  0
    2.9594   -8.7074   38.2251 S   0  0  0  0  0  0  0  0  0  0  0  0
    2.0382   -8.1766   39.5764 C   0  0  0  0  0  0  0  0  0  0  0  0
    1.0118   -7.3278   39.2070 C   0  0  0  0  0  0  0  0  0  0  0  0
    0.9876   -7.1464   37.8049 C   0  0  0  0  0  0  0  0  0  0  0  0
    0.1524   -6.3749   37.0868 N   0  0  0  0  0  0  0  0  0  0  0  0
   -0.6325   -6.4477   32.4930 N   0  0  0  0  0  0  0  0  0  0  0  0
   -1.2896   -7.5997   32.8497 C   0  0  0  0  0  0  0  0  0  0  0  0
   -1.5366   -8.3344   31.7868 N   0  0  0  0  0  0  0  0  0  0  0  0
   -1.0006   -7.6908   30.6983 N   0  0  0  0  0  0  0  0  0  0  0  0
   -0.4446   -6.5746   31.1224 C   0  0  0  0  0  0  0  0  0  0  0  0
    0.2283   -5.5249   30.4318 C   0  0  0  0  0  0  0  0  0  0  0  0
    3.2413   -4.9729   27.5089 N   0  0  0  0  0  0  0  0  0  0  0  0
    2.3522   -7.3012   27.2214 H   0  0  0  0  0  0  0  0  0  0  0  0
    4.0404   -7.8020   27.0247 H   0  0  0  0  0  0  0  0  0  0  0  0
    3.1126   -7.5130   25.5757 H   0  0  0  0  0  0  0  0  0  0  0  0
    5.3805   -6.0561   25.2982 H   0  0  0  0  0  0  0  0  0  0  0  0
    5.9398   -3.5282   26.1814 H   0  0  0  0  0  0  0  0  0  0  0  0
    2.2379   -1.5891   27.5571 H   0  0  0  0  0  0  0  0  0  0  0  0
    0.4500   -2.5592   28.5977 H   0  0  0  0  0  0  0  0  0  0  0  0
    1.4230   -3.9488   28.3262 H   0  0  0  0  0  0  0  0  0  0  0  0
    0.9734   -2.3009   30.8420 H   0  0  0  0  0  0  0  0  0  0  0  0
    2.4002   -3.2966   30.8016 H   0  0  0  0  0  0  0  0  0  0  0  0
    0.6762   -3.3890   33.0275 H   0  0  0  0  0  0  0  0  0  0  0  0
    2.3027   -8.5058   40.5719 H   0  0  0  0  0  0  0  0  0  0  0  0
    0.3313   -6.8759   39.9174 H   0  0  0  0  0  0  0  0  0  0  0  0
   -0.5501   -5.7636   37.4860 H   0  0  0  0  0  0  0  0  0  0  0  0
   -1.5660   -7.8519   33.8632 H   0  0  0  0  0  0  0  0  0  0  0  0
    0.4154   -5.6575   29.3791 H   0  0  0  0  0  0  0  0  0  0  0  0
  1  2  1  0
  2  3  1  0
  3  4  2  0
  4  5  1  0
  5  6  1  0
  6  7  2  0
  6  8  2  0
  6  9  1  0
  9 10  1  0
 10 11  1  0
 11 12  1  0
 12 13  1  0
 13 14  2  0
 14 15  1  0
 15 16  1  0
 16 17  2  0
 17 18  1  0
 18 19  2  0
 18 20  1  0
 20 21  1  0
 21 22  1  0
 22 23  2  0
 23 24  1  0
 24 25  1  0
 14 26  1  0
 26 27  1  0
 27 28  2  0
 28 29  1  0
 29 30  2  0
 30 31  1  0
  5 32  2  0
 32  2  1  0
 31 12  2  0
 25 16  1  0
 30 26  1  0
 24 20  2  0
  1 33  1  0
  1 34  1  0
  1 35  1  0
  3 36  1  0
  4 37  1  0
  9 38  1  0
 10 39  1  0
 10 40  1  0
 11 41  1  0
 11 42  1  0
 13 43  1  0
 22 44  1  0
 23 45  1  0
 25 46  1  0
 27 47  1  0
 31 48  1  0
M  END
>  <Energy>  (184) 
23.349573139272245

>  <compound_id>  (184) 
2460

>  <target_id>  (184) 
1

>  <reference_id>  (184) 
166

>  <inspiration_ids>  (184) 
[166, 177]

>  <energy_score>  (184) 
-60.50912987408594

>  <distance_score>  (184) 
2.2003851056488304

>  <path>  (184) 
/opt/xchem-fragalysis-2/maxwin/BulkDock/SCRATCH/505736/C2460-P166/C2460-P166.minimised.mol

>  <scratch_subdir>  (184) 
/opt/xchem-fragalysis-2/maxwin/BulkDock/SCRATCH/505736/C2460-P166

>  <fragmenstein_runtime>  (184) 
3.1248931884765625

>  <fragmenstein_outcome>  (184) 
too moved

>  <fragmenstein_mode>  (184) 
expansion

>  <fragmenstein_error>  (184) 


$$$$
C2460-P177
     RDKit          3D

 48 52  0  0  0  0  0  0  0  0999 V2000
    4.1314   -6.6479   25.9591 C   0  0  0  0  0  0  0  0  0  0  0  0
    3.4684   -5.5504   26.5889 N   0  0  0  0  0  0  0  0  0  0  0  0
    2.7490   -5.6447   27.7332 C   0  0  0  0  0  0  0  0  0  0  0  0
    3.1859   -4.5974   28.4797 C   0  0  0  0  0  0  0  0  0  0  0  0
    3.8483   -3.7590   27.5768 C   0  0  0  0  0  0  0  0  0  0  0  0
    4.1986   -2.1390   28.0219 S   0  0  0  0  0  0  0  0  0  0  0  0
    4.9891   -2.2210   29.2324 O   0  0  0  0  0  0  0  0  0  0  0  0
    4.6200   -1.4091   26.8541 O   0  0  0  0  0  0  0  0  0  0  0  0
    2.6533   -1.5820   28.4428 N   0  0  0  0  0  0  0  0  0  0  0  0
    2.0837   -2.0283   29.7408 C   0  0  0  0  0  0  0  0  0  0  0  0
    0.7651   -2.8686   29.6372 C   0  0  0  0  0  0  0  0  0  0  0  0
    0.4503   -4.0276   30.6516 C   0  0  0  0  0  0  0  0  0  0  0  0
    0.3930   -3.8195   32.1211 C   0  0  0  0  0  0  0  0  0  0  0  0
   -0.0465   -4.8009   32.9607 C   0  0  0  0  0  0  0  0  0  0  0  0
   -0.2539   -4.5134   34.6759 S   0  0  0  0  0  0  0  0  0  0  0  0
    0.6595   -5.7842   35.4940 C   0  0  0  0  0  0  0  0  0  0  0  0
    1.6044   -6.3747   34.8377 N   0  0  0  0  0  0  0  0  0  0  0  0
    2.3928   -7.3060   35.4895 C   0  0  0  0  0  0  0  0  0  0  0  0
    3.1774   -8.0081   34.8587 O   0  0  0  0  0  0  0  0  0  0  0  0
    2.1646   -7.3771   36.9193 C   0  0  0  0  0  0  0  0  0  0  0  0
    3.1636   -8.1868   38.0310 S   0  0  0  0  0  0  0  0  0  0  0  0
    2.0769   -7.8544   39.3210 C   0  0  0  0  0  0  0  0  0  0  0  0
    1.0252   -7.0518   38.9204 C   0  0  0  0  0  0  0  0  0  0  0  0
    1.1030   -6.7689   37.5355 C   0  0  0  0  0  0  0  0  0  0  0  0
    0.2776   -5.9981   36.7998 N   0  0  0  0  0  0  0  0  0  0  0  0
   -0.4627   -6.0167   32.3945 N   0  0  0  0  0  0  0  0  0  0  0  0
   -1.0341   -7.1488   32.9223 C   0  0  0  0  0  0  0  0  0  0  0  0
   -1.3485   -7.9949   31.9681 N   0  0  0  0  0  0  0  0  0  0  0  0
   -0.9617   -7.4383   30.7760 N   0  0  0  0  0  0  0  0  0  0  0  0
   -0.4196   -6.2651   31.0323 C   0  0  0  0  0  0  0  0  0  0  0  0
    0.0665   -5.2378   30.1721 C   0  0  0  0  0  0  0  0  0  0  0  0
    3.9093   -4.3088   26.3620 N   0  0  0  0  0  0  0  0  0  0  0  0
    3.6552   -6.9278   25.0377 H   0  0  0  0  0  0  0  0  0  0  0  0
    5.1637   -6.3552   25.7368 H   0  0  0  0  0  0  0  0  0  0  0  0
    4.1809   -7.5020   26.6322 H   0  0  0  0  0  0  0  0  0  0  0  0
    2.1923   -6.5168   28.0134 H   0  0  0  0  0  0  0  0  0  0  0  0
    2.9979   -4.4450   29.5262 H   0  0  0  0  0  0  0  0  0  0  0  0
    2.5404   -0.6008   28.1839 H   0  0  0  0  0  0  0  0  0  0  0  0
    1.8518   -1.1167   30.3076 H   0  0  0  0  0  0  0  0  0  0  0  0
    2.8180   -2.5484   30.3608 H   0  0  0  0  0  0  0  0  0  0  0  0
    0.6921   -3.2694   28.6175 H   0  0  0  0  0  0  0  0  0  0  0  0
   -0.0722   -2.1602   29.7143 H   0  0  0  0  0  0  0  0  0  0  0  0
    0.6786   -2.8398   32.4958 H   0  0  0  0  0  0  0  0  0  0  0  0
    2.2757   -8.2488   40.3090 H   0  0  0  0  0  0  0  0  0  0  0  0
    0.2561   -6.7056   39.5993 H   0  0  0  0  0  0  0  0  0  0  0  0
   -0.4331   -5.3934   37.1985 H   0  0  0  0  0  0  0  0  0  0  0  0
   -1.2155   -7.3034   33.9745 H   0  0  0  0  0  0  0  0  0  0  0  0
    0.0301   -5.4355   29.1040 H   0  0  0  0  0  0  0  0  0  0  0  0
  1  2  1  0
  2  3  1  0
  3  4  2  0
  4  5  1  0
  5  6  1  0
  6  7  2  0
  6  8  2  0
  6  9  1  0
  9 10  1  0
 10 11  1  0
 11 12  1  0
 12 13  1  0
 13 14  2  0
 14 15  1  0
 15 16  1  0
 16 17  2  0
 17 18  1  0
 18 19  2  0
 18 20  1  0
 20 21  1  0
 21 22  1  0
 22 23  2  0
 23 24  1  0
 24 25  1  0
 14 26  1  0
 26 27  1  0
 27 28  2  0
 28 29  1  0
 29 30  2  0
 30 31  1  0
  5 32  2  0
 32  2  1  0
 31 12  2  0
 25 16  1  0
 30 26  1  0
 24 20  2  0
  1 33  1  0
  1 34  1  0
  1 35  1  0
  3 36  1  0
  4 37  1  0
  9 38  1  0
 10 39  1  0
 10 40  1  0
 11 41  1  0
 11 42  1  0
 13 43  1  0
 22 44  1  0
 23 45  1  0
 25 46  1  0
 27 47  1  0
 31 48  1  0
M  END
>  <Energy>  (185) 
49.186909825234437

>  <compound_id>  (185) 
2460

>  <target_id>  (185) 
1

>  <reference_id>  (185) 
177

>  <inspiration_ids>  (185) 
[166, 177]

>  <energy_score>  (185) 
-34.67179318812168

>  <distance_score>  (185) 
2.417957458396423

>  <path>  (185) 
/opt/xchem-fragalysis-2/maxwin/BulkDock/SCRATCH/505736/C2460-P177/C2460-P177.minimised.mol

>  <scratch_subdir>  (185) 
/opt/xchem-fragalysis-2/maxwin/BulkDock/SCRATCH/505736/C2460-P177

>  <fragmenstein_runtime>  (185) 
2.904902458190918

>  <fragmenstein_outcome>  (185) 
too moved

>  <fragmenstein_mode>  (185) 
expansion

>  <fragmenstein_error>  (185) 


$$$$
C2460-P166
     RDKit          3D

 48 52  0  0  0  0  0  0  0  0999 V2000
    3.3224   -4.1775   30.4023 C   0  0  0  0  0  0  0  0  0  0  0  0
    2.9931   -2.7824   30.2463 N   0  0  0  0  0  0  0  0  0  0  0  0
    3.0531   -1.8226   31.2085 C   0  0  0  0  0  0  0  0  0  0  0  0
    2.2903   -0.7734   30.7501 C   0  0  0  0  0  0  0  0  0  0  0  0
    1.8337   -1.1862   29.4829 C   0  0  0  0  0  0  0  0  0  0  0  0
    0.4359   -0.4903   28.6795 S   0  0  0  0  0  0  0  0  0  0  0  0
   -0.2725    0.2521   29.6993 O   0  0  0  0  0  0  0  0  0  0  0  0
    0.9419    0.1397   27.4849 O   0  0  0  0  0  0  0  0  0  0  0  0
   -0.5574   -1.7623   28.2755 N   0  0  0  0  0  0  0  0  0  0  0  0
   -0.4105   -3.0591   28.9647 C   0  0  0  0  0  0  0  0  0  0  0  0
   -0.5783   -3.0286   30.5069 C   0  0  0  0  0  0  0  0  0  0  0  0
   -0.4300   -4.3507   31.2705 C   0  0  0  0  0  0  0  0  0  0  0  0
   -0.4953   -4.2787   32.7407 C   0  0  0  0  0  0  0  0  0  0  0  0
   -0.6821   -5.3951   33.4838 C   0  0  0  0  0  0  0  0  0  0  0  0
   -0.8808   -5.2607   35.2049 S   0  0  0  0  0  0  0  0  0  0  0  0
    0.2682   -6.3790   35.9231 C   0  0  0  0  0  0  0  0  0  0  0  0
    1.1509   -6.9493   35.1691 N   0  0  0  0  0  0  0  0  0  0  0  0
    2.0499   -7.8287   35.7503 C   0  0  0  0  0  0  0  0  0  0  0  0
    2.8137   -8.4867   35.0517 O   0  0  0  0  0  0  0  0  0  0  0  0
    1.9856   -7.8864   37.1922 C   0  0  0  0  0  0  0  0  0  0  0  0
    3.0853   -8.7193   38.1801 S   0  0  0  0  0  0  0  0  0  0  0  0
    2.2034   -8.2967   39.5950 C   0  0  0  0  0  0  0  0  0  0  0  0
    1.1145   -7.4947   39.3113 C   0  0  0  0  0  0  0  0  0  0  0  0
    1.0139   -7.2574   37.9218 C   0  0  0  0  0  0  0  0  0  0  0  0
    0.1001   -6.5114   37.2794 N   0  0  0  0  0  0  0  0  0  0  0  0
   -0.8374   -6.6103   32.8001 N   0  0  0  0  0  0  0  0  0  0  0  0
   -1.2594   -7.8548   33.1876 C   0  0  0  0  0  0  0  0  0  0  0  0
   -1.3771   -8.6429   32.1409 N   0  0  0  0  0  0  0  0  0  0  0  0
   -0.9812   -7.9418   31.0334 N   0  0  0  0  0  0  0  0  0  0  0  0
   -0.6584   -6.7305   31.4282 C   0  0  0  0  0  0  0  0  0  0  0  0
   -0.3549   -5.5622   30.6803 C   0  0  0  0  0  0  0  0  0  0  0  0
    2.3933   -2.3639   29.1227 N   0  0  0  0  0  0  0  0  0  0  0  0
    2.6099   -4.7836   29.8373 H   0  0  0  0  0  0  0  0  0  0  0  0
    4.3347   -4.3294   30.0204 H   0  0  0  0  0  0  0  0  0  0  0  0
    3.2721   -4.4423   31.4615 H   0  0  0  0  0  0  0  0  0  0  0  0
    3.5512   -1.9871   32.1542 H   0  0  0  0  0  0  0  0  0  0  0  0
    2.0080    0.1166   31.2964 H   0  0  0  0  0  0  0  0  0  0  0  0
   -0.6950   -1.7994   27.2613 H   0  0  0  0  0  0  0  0  0  0  0  0
    0.4880   -3.5823   28.6357 H   0  0  0  0  0  0  0  0  0  0  0  0
   -1.2137   -3.6867   28.5852 H   0  0  0  0  0  0  0  0  0  0  0  0
    0.0976   -2.3106   30.9672 H   0  0  0  0  0  0  0  0  0  0  0  0
   -1.5861   -2.6419   30.7163 H   0  0  0  0  0  0  0  0  0  0  0  0
   -0.4245   -3.2946   33.1996 H   0  0  0  0  0  0  0  0  0  0  0  0
    2.5334   -8.6516   40.5619 H   0  0  0  0  0  0  0  0  0  0  0  0
    0.4436   -7.1151   40.0715 H   0  0  0  0  0  0  0  0  0  0  0  0
   -0.6320   -5.9800   37.7366 H   0  0  0  0  0  0  0  0  0  0  0  0
   -1.4866   -8.1330   34.2067 H   0  0  0  0  0  0  0  0  0  0  0  0
   -0.3018   -5.6761   29.6067 H   0  0  0  0  0  0  0  0  0  0  0  0
  1  2  1  0
  2  3  1  0
  3  4  2  0
  4  5  1  0
  5  6  1  0
  6  7  2  0
  6  8  2  0
  6  9  1  0
  9 10  1  0
 10 11  1  0
 11 12  1  0
 12 13  1  0
 13 14  2  0
 14 15  1  0
 15 16  1  0
 16 17  2  0
 17 18  1  0
 18 19  2  0
 18 20  1  0
 20 21  1  0
 21 22  1  0
 22 23  2  0
 23 24  1  0
 24 25  1  0
 14 26  1  0
 26 27  1  0
 27 28  2  0
 28 29  1  0
 29 30  2  0
 30 31  1  0
  5 32  2  0
 32  2  1  0
 31 12  2  0
 25 16  1  0
 30 26  1  0
 24 20  2  0
  1 33  1  0
  1 34  1  0
  1 35  1  0
  3 36  1  0
  4 37  1  0
  9 38  1  0
 10 39  1  0
 10 40  1  0
 11 41  1  0
 11 42  1  0
 13 43  1  0
 22 44  1  0
 23 45  1  0
 25 46  1  0
 27 47  1  0
 31 48  1  0
M  END
>  <Energy>  (186) 
33.88859503018633

>  <compound_id>  (186) 
2460

>  <target_id>  (186) 
1

>  <reference_id>  (186) 
166

>  <inspiration_ids>  (186) 
[166, 180]

>  <energy_score>  (186) 
-50.74767519540339

>  <distance_score>  (186) 
1.4857931406776361

>  <path>  (186) 
/opt/xchem-fragalysis-2/maxwin/BulkDock/SCRATCH/505736/C2460-P166/C2460-P166.minimised.mol

>  <scratch_subdir>  (186) 
/opt/xchem-fragalysis-2/maxwin/BulkDock/SCRATCH/505736/C2460-P166

>  <fragmenstein_runtime>  (186) 
3.2959513664245605

>  <fragmenstein_outcome>  (186) 
too moved

>  <fragmenstein_mode>  (186) 
expansion

>  <fragmenstein_error>  (186) 


$$$$
C2460-P180
     RDKit          3D

 48 52  0  0  0  0  0  0  0  0999 V2000
    3.3333   -4.0212   30.7883 C   0  0  0  0  0  0  0  0  0  0  0  0
    2.9120   -2.6572   30.5843 N   0  0  0  0  0  0  0  0  0  0  0  0
    2.7362   -1.7053   31.5405 C   0  0  0  0  0  0  0  0  0  0  0  0
    1.9890   -0.7068   30.9580 C   0  0  0  0  0  0  0  0  0  0  0  0
    1.7827   -1.1406   29.6340 C   0  0  0  0  0  0  0  0  0  0  0  0
    0.4851   -0.5582   28.6016 S   0  0  0  0  0  0  0  0  0  0  0  0
   -0.4855    0.0530   29.4837 O   0  0  0  0  0  0  0  0  0  0  0  0
    1.1251    0.1766   27.5378 O   0  0  0  0  0  0  0  0  0  0  0  0
   -0.2434   -1.9259   28.0088 N   0  0  0  0  0  0  0  0  0  0  0  0
   -0.2554   -3.1699   28.7903 C   0  0  0  0  0  0  0  0  0  0  0  0
   -0.6512   -3.0727   30.2855 C   0  0  0  0  0  0  0  0  0  0  0  0
   -0.4271   -4.3244   31.1387 C   0  0  0  0  0  0  0  0  0  0  0  0
   -0.4768   -4.1799   32.6049 C   0  0  0  0  0  0  0  0  0  0  0  0
   -0.6000   -5.2688   33.4007 C   0  0  0  0  0  0  0  0  0  0  0  0
   -0.7499   -5.0824   35.1226 S   0  0  0  0  0  0  0  0  0  0  0  0
    0.3963   -6.2095   35.8354 C   0  0  0  0  0  0  0  0  0  0  0  0
    1.3191   -6.7245   35.0883 N   0  0  0  0  0  0  0  0  0  0  0  0
    2.2293   -7.5980   35.6609 C   0  0  0  0  0  0  0  0  0  0  0  0
    2.9893   -8.2580   34.9579 O   0  0  0  0  0  0  0  0  0  0  0  0
    2.1504   -7.6721   37.1045 C   0  0  0  0  0  0  0  0  0  0  0  0
    3.2856   -8.4401   38.1066 S   0  0  0  0  0  0  0  0  0  0  0  0
    2.3275   -8.1367   39.5022 C   0  0  0  0  0  0  0  0  0  0  0  0
    1.1991   -7.3951   39.2085 C   0  0  0  0  0  0  0  0  0  0  0  0
    1.1240   -7.1210   37.8241 C   0  0  0  0  0  0  0  0  0  0  0  0
    0.1819   -6.4140   37.1763 N   0  0  0  0  0  0  0  0  0  0  0  0
   -0.7206   -6.5143   32.7700 N   0  0  0  0  0  0  0  0  0  0  0  0
   -1.1166   -7.7453   33.2115 C   0  0  0  0  0  0  0  0  0  0  0  0
   -1.2235   -8.5794   32.2010 N   0  0  0  0  0  0  0  0  0  0  0  0
   -0.8378   -7.9273   31.0651 N   0  0  0  0  0  0  0  0  0  0  0  0
   -0.5424   -6.6946   31.4074 C   0  0  0  0  0  0  0  0  0  0  0  0
   -0.2826   -5.5560   30.6088 C   0  0  0  0  0  0  0  0  0  0  0  0
    2.4731   -2.2758   29.3785 N   0  0  0  0  0  0  0  0  0  0  0  0
    3.2083   -4.2848   31.8415 H   0  0  0  0  0  0  0  0  0  0  0  0
    2.7247   -4.6836   30.1678 H   0  0  0  0  0  0  0  0  0  0  0  0
    4.3851   -4.0952   30.5023 H   0  0  0  0  0  0  0  0  0  0  0  0
    3.0802   -1.8423   32.5566 H   0  0  0  0  0  0  0  0  0  0  0  0
    1.5545    0.1548   31.4467 H   0  0  0  0  0  0  0  0  0  0  0  0
   -1.0650   -1.7323   27.4296 H   0  0  0  0  0  0  0  0  0  0  0  0
   -0.9841   -3.8241   28.3079 H   0  0  0  0  0  0  0  0  0  0  0  0
    0.6978   -3.6869   28.6552 H   0  0  0  0  0  0  0  0  0  0  0  0
   -0.1547   -2.2469   30.7875 H   0  0  0  0  0  0  0  0  0  0  0  0
   -1.7194   -2.8222   30.3343 H   0  0  0  0  0  0  0  0  0  0  0  0
   -0.4325   -3.1737   33.0163 H   0  0  0  0  0  0  0  0  0  0  0  0
    2.6451   -8.5077   40.4679 H   0  0  0  0  0  0  0  0  0  0  0  0
    0.4820   -7.0894   39.9600 H   0  0  0  0  0  0  0  0  0  0  0  0
   -0.5518   -5.8873   37.6385 H   0  0  0  0  0  0  0  0  0  0  0  0
   -1.3458   -7.9753   34.2406 H   0  0  0  0  0  0  0  0  0  0  0  0
   -0.2233   -5.7206   29.5438 H   0  0  0  0  0  0  0  0  0  0  0  0
  1  2  1  0
  2  3  1  0
  3  4  2  0
  4  5  1  0
  5  6  1  0
  6  7  2  0
  6  8  2  0
  6  9  1  0
  9 10  1  0
 10 11  1  0
 11 12  1  0
 12 13  1  0
 13 14  2  0
 14 15  1  0
 15 16  1  0
 16 17  2  0
 17 18  1  0
 18 19  2  0
 18 20  1  0
 20 21  1  0
 21 22  1  0
 22 23  2  0
 23 24  1  0
 24 25  1  0
 14 26  1  0
 26 27  1  0
 27 28  2  0
 28 29  1  0
 29 30  2  0
 30 31  1  0
  5 32  2  0
 32  2  1  0
 31 12  2  0
 25 16  1  0
 30 26  1  0
 24 20  2  0
  1 33  1  0
  1 34  1  0
  1 35  1  0
  3 36  1  0
  4 37  1  0
  9 38  1  0
 10 39  1  0
 10 40  1  0
 11 41  1  0
 11 42  1  0
 13 43  1  0
 22 44  1  0
 23 45  1  0
 25 46  1  0
 27 47  1  0
 31 48  1  0
M  END
>  <Energy>  (187) 
37.781540643618406

>  <compound_id>  (187) 
2460

>  <target_id>  (187) 
1

>  <reference_id>  (187) 
180

>  <inspiration_ids>  (187) 
[166, 180]

>  <energy_score>  (187) 
-46.854729581973196

>  <distance_score>  (187) 
1.4716045478169737

>  <path>  (187) 
/opt/xchem-fragalysis-2/maxwin/BulkDock/SCRATCH/505736/C2460-P180/C2460-P180.minimised.mol

>  <scratch_subdir>  (187) 
/opt/xchem-fragalysis-2/maxwin/BulkDock/SCRATCH/505736/C2460-P180

>  <fragmenstein_runtime>  (187) 
3.3361170291900635

>  <fragmenstein_outcome>  (187) 
too moved

>  <fragmenstein_mode>  (187) 
expansion

>  <fragmenstein_error>  (187) 


$$$$
C2461-P166
     RDKit          3D

 41 45  0  0  0  0  0  0  0  0999 V2000
    3.0210   -8.6245   35.2467 O   0  0  0  0  0  0  0  0  0  0  0  0
    2.1874   -8.0657   35.9520 C   0  0  0  0  0  0  0  0  0  0  0  0
    1.1593   -7.3511   35.3727 N   0  0  0  0  0  0  0  0  0  0  0  0
    0.2620   -6.8151   36.1352 C   0  0  0  0  0  0  0  0  0  0  0  0
   -1.0497   -5.9225   35.3783 S   0  0  0  0  0  0  0  0  0  0  0  0
   -0.5653   -5.9295   33.7170 C   0  0  0  0  0  0  0  0  0  0  0  0
    0.2007   -4.9333   33.2346 C   0  0  0  0  0  0  0  0  0  0  0  0
    0.6374   -4.9616   31.8416 C   0  0  0  0  0  0  0  0  0  0  0  0
    1.4370   -3.7885   31.3677 C   0  0  0  0  0  0  0  0  0  0  0  0
    0.6148   -2.9926   30.4652 N   0  0  0  0  0  0  0  0  0  0  0  0
   -0.7573   -2.2369   31.1199 S   0  0  0  0  0  0  0  0  0  0  0  0
   -1.8557   -3.1786   31.0480 O   0  0  0  0  0  0  0  0  0  0  0  0
   -0.3951   -1.5728   32.3509 O   0  0  0  0  0  0  0  0  0  0  0  0
   -1.1107   -0.9946   29.9427 C   0  0  0  0  0  0  0  0  0  0  0  0
   -1.4657   -1.3210   28.6478 C   0  0  0  0  0  0  0  0  0  0  0  0
   -1.4056    0.0696   27.6573 S   0  0  0  0  0  0  0  0  0  0  0  0
   -0.9563    0.9987   29.0182 C   0  0  0  0  0  0  0  0  0  0  0  0
   -0.8343    0.3547   30.1600 N   0  0  0  0  0  0  0  0  0  0  0  0
    0.2673   -5.9677   31.0212 C   0  0  0  0  0  0  0  0  0  0  0  0
   -0.5691   -6.9992   31.5094 C   0  0  0  0  0  0  0  0  0  0  0  0
   -1.1213   -8.0327   30.9163 N   0  0  0  0  0  0  0  0  0  0  0  0
   -1.8234   -8.7224   31.8683 N   0  0  0  0  0  0  0  0  0  0  0  0
   -1.6889   -8.0902   33.0141 C   0  0  0  0  0  0  0  0  0  0  0  0
   -0.9383   -6.9604   32.8470 N   0  0  0  0  0  0  0  0  0  0  0  0
    0.1879   -6.8342   37.5029 N   0  0  0  0  0  0  0  0  0  0  0  0
    1.1666   -7.4999   38.1362 C   0  0  0  0  0  0  0  0  0  0  0  0
    1.3160   -7.6907   39.5275 C   0  0  0  0  0  0  0  0  0  0  0  0
    2.4542   -8.4241   39.8018 C   0  0  0  0  0  0  0  0  0  0  0  0
    3.3196   -8.8431   38.3753 S   0  0  0  0  0  0  0  0  0  0  0  0
    2.1579   -8.0883   37.3965 C   0  0  0  0  0  0  0  0  0  0  0  0
    0.5060   -4.0971   33.8602 H   0  0  0  0  0  0  0  0  0  0  0  0
    1.8227   -3.1686   32.1839 H   0  0  0  0  0  0  0  0  0  0  0  0
    2.3147   -4.1417   30.8129 H   0  0  0  0  0  0  0  0  0  0  0  0
    0.3644   -3.4672   29.5979 H   0  0  0  0  0  0  0  0  0  0  0  0
   -1.6985   -2.2882   28.2292 H   0  0  0  0  0  0  0  0  0  0  0  0
   -0.7721    2.0611   28.9210 H   0  0  0  0  0  0  0  0  0  0  0  0
    0.5562   -5.9968   29.9778 H   0  0  0  0  0  0  0  0  0  0  0  0
   -2.1096   -8.4016   33.9587 H   0  0  0  0  0  0  0  0  0  0  0  0
   -0.5957   -6.3806   37.9574 H   0  0  0  0  0  0  0  0  0  0  0  0
    0.6438   -7.3283   40.2946 H   0  0  0  0  0  0  0  0  0  0  0  0
    2.8288   -8.7317   40.7686 H   0  0  0  0  0  0  0  0  0  0  0  0
  1  2  2  0
  2  3  1  0
  3  4  2  0
  4  5  1  0
  5  6  1  0
  6  7  2  0
  7  8  1  0
  8  9  1  0
  9 10  1  0
 10 11  1  0
 11 12  2  0
 11 13  2  0
 11 14  1  0
 14 15  2  0
 15 16  1  0
 16 17  1  0
 17 18  2  0
  8 19  2  0
 19 20  1  0
 20 21  2  0
 21 22  1  0
 22 23  2  0
 23 24  1  0
  4 25  1  0
 25 26  1  0
 26 27  1  0
 27 28  2  0
 28 29  1  0
 29 30  1  0
 30  2  1  0
 24  6  1  0
 30 26  2  0
 18 14  1  0
 24 20  1  0
  7 31  1  0
  9 32  1  0
  9 33  1  0
 10 34  1  0
 15 35  1  0
 17 36  1  0
 19 37  1  0
 23 38  1  0
 25 39  1  0
 27 40  1  0
 28 41  1  0
M  END
>  <Energy>  (188) 
-30.636216245768509

>  <compound_id>  (188) 
2461

>  <target_id>  (188) 
1

>  <reference_id>  (188) 
166

>  <inspiration_ids>  (188) 
[166, 186]

>  <energy_score>  (188) 
-82.535406805321

>  <distance_score>  (188) 
0.6890675021587228

>  <path>  (188) 
/opt/xchem-fragalysis-2/maxwin/BulkDock/SCRATCH/505736/C2461-P166/C2461-P166.minimised.mol

>  <scratch_subdir>  (188) 
/opt/xchem-fragalysis-2/maxwin/BulkDock/SCRATCH/505736/C2461-P166

>  <fragmenstein_runtime>  (188) 
1.5695109367370605

>  <fragmenstein_outcome>  (188) 
acceptable

>  <fragmenstein_mode>  (188) 
expansion

>  <fragmenstein_error>  (188) 


$$$$
C2461-P186
     RDKit          3D

 41 45  0  0  0  0  0  0  0  0999 V2000
    3.4006   -8.3115   35.3388 O   0  0  0  0  0  0  0  0  0  0  0  0
    2.4932   -7.8650   36.0324 C   0  0  0  0  0  0  0  0  0  0  0  0
    1.3675   -7.3434   35.4366 N   0  0  0  0  0  0  0  0  0  0  0  0
    0.4120   -6.8869   36.1791 C   0  0  0  0  0  0  0  0  0  0  0  0
   -1.0107   -6.2497   35.3742 S   0  0  0  0  0  0  0  0  0  0  0  0
   -0.4205   -6.0961   33.7556 C   0  0  0  0  0  0  0  0  0  0  0  0
    0.4500   -5.1193   33.4538 C   0  0  0  0  0  0  0  0  0  0  0  0
    0.9819   -5.0189   32.1019 C   0  0  0  0  0  0  0  0  0  0  0  0
    1.7642   -3.7779   31.8313 C   0  0  0  0  0  0  0  0  0  0  0  0
    0.9222   -2.8863   31.0502 N   0  0  0  0  0  0  0  0  0  0  0  0
   -0.6095   -2.4405   31.6549 S   0  0  0  0  0  0  0  0  0  0  0  0
   -1.5353   -3.5476   31.5104 O   0  0  0  0  0  0  0  0  0  0  0  0
   -0.4514   -1.7011   32.8831 O   0  0  0  0  0  0  0  0  0  0  0  0
   -1.1117   -1.3199   30.4319 C   0  0  0  0  0  0  0  0  0  0  0  0
   -1.3712   -1.8171   29.1711 C   0  0  0  0  0  0  0  0  0  0  0  0
   -1.1623   -0.5768   28.0557 S   0  0  0  0  0  0  0  0  0  0  0  0
   -0.9640    0.5582   29.3156 C   0  0  0  0  0  0  0  0  0  0  0  0
   -0.9387    0.0576   30.5307 N   0  0  0  0  0  0  0  0  0  0  0  0
    0.6358   -5.9060   31.1430 C   0  0  0  0  0  0  0  0  0  0  0  0
   -0.2903   -6.9322   31.4506 C   0  0  0  0  0  0  0  0  0  0  0  0
   -0.8472   -7.8689   30.7143 N   0  0  0  0  0  0  0  0  0  0  0  0
   -1.6727   -8.5950   31.5303 N   0  0  0  0  0  0  0  0  0  0  0  0
   -1.6021   -8.0776   32.7356 C   0  0  0  0  0  0  0  0  0  0  0  0
   -0.7763   -6.9945   32.7485 N   0  0  0  0  0  0  0  0  0  0  0  0
    0.3474   -6.8389   37.5442 N   0  0  0  0  0  0  0  0  0  0  0  0
    1.3710   -7.4126   38.1961 C   0  0  0  0  0  0  0  0  0  0  0  0
    1.4918   -7.6237   39.5862 C   0  0  0  0  0  0  0  0  0  0  0  0
    2.6751   -8.2725   39.8809 C   0  0  0  0  0  0  0  0  0  0  0  0
    3.6236   -8.5715   38.4775 S   0  0  0  0  0  0  0  0  0  0  0  0
    2.4342   -7.8934   37.4769 C   0  0  0  0  0  0  0  0  0  0  0  0
    0.7624   -4.3890   34.1972 H   0  0  0  0  0  0  0  0  0  0  0  0
    2.1076   -3.2704   32.7388 H   0  0  0  0  0  0  0  0  0  0  0  0
    2.6608   -4.0194   31.2488 H   0  0  0  0  0  0  0  0  0  0  0  0
    0.8587   -3.1496   30.0672 H   0  0  0  0  0  0  0  0  0  0  0  0
   -1.5252   -2.8424   28.8606 H   0  0  0  0  0  0  0  0  0  0  0  0
   -0.8270    1.6125   29.1099 H   0  0  0  0  0  0  0  0  0  0  0  0
    0.9737   -5.8120   30.1172 H   0  0  0  0  0  0  0  0  0  0  0  0
   -2.1267   -8.4307   33.6076 H   0  0  0  0  0  0  0  0  0  0  0  0
   -0.4860   -6.4694   37.9857 H   0  0  0  0  0  0  0  0  0  0  0  0
    0.7634   -7.3518   40.3394 H   0  0  0  0  0  0  0  0  0  0  0  0
    3.0351   -8.5865   40.8517 H   0  0  0  0  0  0  0  0  0  0  0  0
  1  2  2  0
  2  3  1  0
  3  4  2  0
  4  5  1  0
  5  6  1  0
  6  7  2  0
  7  8  1  0
  8  9  1  0
  9 10  1  0
 10 11  1  0
 11 12  2  0
 11 13  2  0
 11 14  1  0
 14 15  2  0
 15 16  1  0
 16 17  1  0
 17 18  2  0
  8 19  2  0
 19 20  1  0
 20 21  2  0
 21 22  1  0
 22 23  2  0
 23 24  1  0
  4 25  1  0
 25 26  1  0
 26 27  1  0
 27 28  2  0
 28 29  1  0
 29 30  1  0
 30  2  1  0
 24  6  1  0
 30 26  2  0
 18 14  1  0
 24 20  1  0
  7 31  1  0
  9 32  1  0
  9 33  1  0
 10 34  1  0
 15 35  1  0
 17 36  1  0
 19 37  1  0
 23 38  1  0
 25 39  1  0
 27 40  1  0
 28 41  1  0
M  END
>  <Energy>  (189) 
-21.099212381110199

>  <compound_id>  (189) 
2461

>  <target_id>  (189) 
1

>  <reference_id>  (189) 
186

>  <inspiration_ids>  (189) 
[166, 186]

>  <energy_score>  (189) 
-72.99840294066274

>  <distance_score>  (189) 
0.8280547480945118

>  <path>  (189) 
/opt/xchem-fragalysis-2/maxwin/BulkDock/SCRATCH/505736/C2461-P186/C2461-P186.minimised.mol

>  <scratch_subdir>  (189) 
/opt/xchem-fragalysis-2/maxwin/BulkDock/SCRATCH/505736/C2461-P186

>  <fragmenstein_runtime>  (189) 
1.6243600845336914

>  <fragmenstein_outcome>  (189) 
acceptable

>  <fragmenstein_mode>  (189) 
expansion

>  <fragmenstein_error>  (189) 


$$$$
C2462-P166
     RDKit          3D

 52 56  0  0  0  0  0  0  0  0999 V2000
    3.1130   -8.7407   35.6414 O   0  0  0  0  0  0  0  0  0  0  0  0
    2.2183   -8.2824   36.3460 C   0  0  0  0  0  0  0  0  0  0  0  0
    1.1305   -7.6755   35.7764 N   0  0  0  0  0  0  0  0  0  0  0  0
    0.2444   -7.0994   36.5209 C   0  0  0  0  0  0  0  0  0  0  0  0
   -1.0176   -6.1764   35.7085 S   0  0  0  0  0  0  0  0  0  0  0  0
    0.0289   -5.6130   34.3538 C   0  0  0  0  0  0  0  0  0  0  0  0
   -0.2133   -4.1861   33.8902 C   0  0  0  0  0  0  0  0  0  0  0  0
    1.1237   -3.7121   33.3264 C   0  0  0  0  0  0  0  0  0  0  0  0
    1.8179   -4.7627   32.4561 C   0  0  0  0  0  0  0  0  0  0  0  0
    1.0402   -6.0614   32.2033 C   0  0  0  0  0  0  0  0  0  0  0  0
    0.3813   -6.3384   30.9288 N   0  0  0  0  0  0  0  0  0  0  0  0
   -0.3553   -5.2240   30.3271 C   0  0  0  0  0  0  0  0  0  0  0  0
    0.3398   -3.9913   29.7293 C   0  0  0  0  0  0  0  0  0  0  0  0
    0.3439   -2.8514   30.6617 N   0  0  0  0  0  0  0  0  0  0  0  0
   -1.0856   -1.9962   30.9798 S   0  0  0  0  0  0  0  0  0  0  0  0
   -0.8611   -1.2237   32.1821 O   0  0  0  0  0  0  0  0  0  0  0  0
   -2.2266   -2.8748   30.8537 O   0  0  0  0  0  0  0  0  0  0  0  0
   -1.2231   -0.8161   29.7021 C   0  0  0  0  0  0  0  0  0  0  0  0
   -1.5848   -1.1445   28.4130 C   0  0  0  0  0  0  0  0  0  0  0  0
   -1.4603    0.2322   27.4055 S   0  0  0  0  0  0  0  0  0  0  0  0
   -0.9482    1.1552   28.7462 C   0  0  0  0  0  0  0  0  0  0  0  0
   -0.8275    0.5098   29.8860 N   0  0  0  0  0  0  0  0  0  0  0  0
   -0.6314   -7.3988   31.2790 N   0  0  0  0  0  0  0  0  0  0  0  0
   -1.0026   -7.1004   32.6673 C   0  0  0  0  0  0  0  0  0  0  0  0
    0.1867   -6.5563   33.2628 N   0  0  0  0  0  0  0  0  0  0  0  0
    0.1976   -7.0452   37.8851 N   0  0  0  0  0  0  0  0  0  0  0  0
    1.1903   -7.6890   38.5213 C   0  0  0  0  0  0  0  0  0  0  0  0
    1.3563   -7.8418   39.9140 C   0  0  0  0  0  0  0  0  0  0  0  0
    2.5043   -8.5570   40.1950 C   0  0  0  0  0  0  0  0  0  0  0  0
    3.3613   -9.0064   38.7732 S   0  0  0  0  0  0  0  0  0  0  0  0
    2.1869   -8.2831   37.7889 C   0  0  0  0  0  0  0  0  0  0  0  0
    1.0128   -5.5444   34.8359 H   0  0  0  0  0  0  0  0  0  0  0  0
   -1.0156   -4.1288   33.1510 H   0  0  0  0  0  0  0  0  0  0  0  0
   -0.4955   -3.5289   34.7213 H   0  0  0  0  0  0  0  0  0  0  0  0
    1.7898   -3.5089   34.1793 H   0  0  0  0  0  0  0  0  0  0  0  0
    1.0542   -2.7360   32.8546 H   0  0  0  0  0  0  0  0  0  0  0  0
    2.7323   -5.0428   33.0042 H   0  0  0  0  0  0  0  0  0  0  0  0
    2.2228   -4.3315   31.5378 H   0  0  0  0  0  0  0  0  0  0  0  0
    1.8535   -6.7765   32.2196 H   0  0  0  0  0  0  0  0  0  0  0  0
   -1.1265   -4.9077   31.0264 H   0  0  0  0  0  0  0  0  0  0  0  0
   -0.8232   -5.6847   29.4574 H   0  0  0  0  0  0  0  0  0  0  0  0
   -0.1586   -3.6860   28.8032 H   0  0  0  0  0  0  0  0  0  0  0  0
    1.3700   -4.2307   29.4448 H   0  0  0  0  0  0  0  0  0  0  0  0
    1.1099   -2.1896   30.5194 H   0  0  0  0  0  0  0  0  0  0  0  0
   -1.9024   -2.0951   28.0136 H   0  0  0  0  0  0  0  0  0  0  0  0
   -0.7275    2.2112   28.6467 H   0  0  0  0  0  0  0  0  0  0  0  0
   -0.1410   -8.2977   31.3033 H   0  0  0  0  0  0  0  0  0  0  0  0
   -1.8222   -6.3828   32.6675 H   0  0  0  0  0  0  0  0  0  0  0  0
   -1.3433   -8.0096   33.1732 H   0  0  0  0  0  0  0  0  0  0  0  0
   -0.5800   -6.5728   38.3285 H   0  0  0  0  0  0  0  0  0  0  0  0
    0.6883   -7.4656   40.6781 H   0  0  0  0  0  0  0  0  0  0  0  0
    2.8915   -8.8345   41.1660 H   0  0  0  0  0  0  0  0  0  0  0  0
  1  2  2  0
  2  3  1  0
  3  4  2  0
  4  5  1  0
  5  6  1  0
  6  7  1  0
  7  8  1  0
  8  9  1  0
  9 10  1  0
 10 11  1  0
 11 12  1  0
 12 13  1  0
 13 14  1  0
 14 15  1  0
 15 16  2  0
 15 17  2  0
 15 18  1  0
 18 19  2  0
 19 20  1  0
 20 21  1  0
 21 22  2  0
 11 23  1  0
 23 24  1  0
 24 25  1  0
  4 26  1  0
 26 27  1  0
 27 28  1  0
 28 29  2  0
 29 30  1  0
 30 31  1  0
 31  2  1  0
 25  6  1  0
 31 27  2  0
 25 10  1  0
 22 18  1  0
  6 32  1  0
  7 33  1  0
  7 34  1  0
  8 35  1  0
  8 36  1  0
  9 37  1  0
  9 38  1  0
 10 39  1  0
 12 40  1  0
 12 41  1  0
 13 42  1  0
 13 43  1  0
 14 44  1  0
 19 45  1  0
 21 46  1  0
 23 47  1  0
 24 48  1  0
 24 49  1  0
 26 50  1  0
 28 51  1  0
 29 52  1  0
M  END
>  <Energy>  (190) 
-17.064628668484584

>  <compound_id>  (190) 
2462

>  <target_id>  (190) 
1

>  <reference_id>  (190) 
166

>  <inspiration_ids>  (190) 
[166, 187]

>  <energy_score>  (190) 
-48.890951091740476

>  <distance_score>  (190) 
1.37618643731374

>  <path>  (190) 
/opt/xchem-fragalysis-2/maxwin/BulkDock/SCRATCH/505736/C2462-P166/C2462-P166.minimised.mol

>  <scratch_subdir>  (190) 
/opt/xchem-fragalysis-2/maxwin/BulkDock/SCRATCH/505736/C2462-P166

>  <fragmenstein_runtime>  (190) 
2.5007848739624023

>  <fragmenstein_outcome>  (190) 
too moved

>  <fragmenstein_mode>  (190) 
expansion

>  <fragmenstein_error>  (190) 


$$$$
C2462-P187
     RDKit          3D

 52 56  0  0  0  0  0  0  0  0999 V2000
    3.3657   -8.4509   35.8115 O   0  0  0  0  0  0  0  0  0  0  0  0
    2.4102   -8.0432   36.4652 C   0  0  0  0  0  0  0  0  0  0  0  0
    1.3082   -7.5397   35.8284 N   0  0  0  0  0  0  0  0  0  0  0  0
    0.3772   -6.9549   36.5095 C   0  0  0  0  0  0  0  0  0  0  0  0
   -0.8739   -6.1294   35.5935 S   0  0  0  0  0  0  0  0  0  0  0  0
    0.1858   -5.6476   34.2212 C   0  0  0  0  0  0  0  0  0  0  0  0
    0.4132   -4.1426   34.1477 C   0  0  0  0  0  0  0  0  0  0  0  0
    1.6715   -3.8764   33.3103 C   0  0  0  0  0  0  0  0  0  0  0  0
    1.9828   -4.9164   32.2188 C   0  0  0  0  0  0  0  0  0  0  0  0
    0.9783   -6.0660   32.0672 C   0  0  0  0  0  0  0  0  0  0  0  0
    0.4483   -6.4242   30.7596 N   0  0  0  0  0  0  0  0  0  0  0  0
   -0.3171   -5.2898   30.1799 C   0  0  0  0  0  0  0  0  0  0  0  0
    0.3342   -3.9813   29.7049 C   0  0  0  0  0  0  0  0  0  0  0  0
    0.3746   -2.9564   30.7677 N   0  0  0  0  0  0  0  0  0  0  0  0
   -1.0243   -2.0829   31.1490 S   0  0  0  0  0  0  0  0  0  0  0  0
   -0.7474   -1.3393   32.3582 O   0  0  0  0  0  0  0  0  0  0  0  0
   -2.1924   -2.9233   31.0186 O   0  0  0  0  0  0  0  0  0  0  0  0
   -1.1582   -0.8641   29.9007 C   0  0  0  0  0  0  0  0  0  0  0  0
   -1.6591   -1.1220   28.6420 C   0  0  0  0  0  0  0  0  0  0  0  0
   -1.4865    0.2649   27.6539 S   0  0  0  0  0  0  0  0  0  0  0  0
   -0.7561    1.0915   28.9542 C   0  0  0  0  0  0  0  0  0  0  0  0
   -0.6072    0.4086   30.0678 N   0  0  0  0  0  0  0  0  0  0  0  0
   -0.6081   -7.4951   31.1549 N   0  0  0  0  0  0  0  0  0  0  0  0
   -0.8012   -7.3224   32.6241 C   0  0  0  0  0  0  0  0  0  0  0  0
   -0.2120   -6.0346   32.8943 N   0  0  0  0  0  0  0  0  0  0  0  0
    0.2749   -6.8430   37.8666 N   0  0  0  0  0  0  0  0  0  0  0  0
    1.2374   -7.4665   38.5681 C   0  0  0  0  0  0  0  0  0  0  0  0
    1.3140   -7.6260   39.9677 C   0  0  0  0  0  0  0  0  0  0  0  0
    2.4526   -8.3250   40.3207 C   0  0  0  0  0  0  0  0  0  0  0  0
    3.4125   -8.7464   38.9578 S   0  0  0  0  0  0  0  0  0  0  0  0
    2.2931   -8.0374   37.9027 C   0  0  0  0  0  0  0  0  0  0  0  0
    1.1819   -6.0439   34.4044 H   0  0  0  0  0  0  0  0  0  0  0  0
   -0.4564   -3.6387   33.7111 H   0  0  0  0  0  0  0  0  0  0  0  0
    0.5627   -3.7038   35.1423 H   0  0  0  0  0  0  0  0  0  0  0  0
    2.5275   -3.8695   34.0007 H   0  0  0  0  0  0  0  0  0  0  0  0
    1.6511   -2.8594   32.9097 H   0  0  0  0  0  0  0  0  0  0  0  0
    2.9382   -5.3746   32.5189 H   0  0  0  0  0  0  0  0  0  0  0  0
    2.2618   -4.4393   31.2799 H   0  0  0  0  0  0  0  0  0  0  0  0
    1.5792   -6.9330   32.3781 H   0  0  0  0  0  0  0  0  0  0  0  0
   -1.1332   -5.0286   30.8540 H   0  0  0  0  0  0  0  0  0  0  0  0
   -0.7401   -5.7102   29.2762 H   0  0  0  0  0  0  0  0  0  0  0  0
   -0.2175   -3.5821   28.8476 H   0  0  0  0  0  0  0  0  0  0  0  0
    1.3474   -4.1670   29.3329 H   0  0  0  0  0  0  0  0  0  0  0  0
    1.1570   -2.3039   30.6929 H   0  0  0  0  0  0  0  0  0  0  0  0
   -2.1010   -2.0282   28.2545 H   0  0  0  0  0  0  0  0  0  0  0  0
   -0.4308    2.1201   28.8563 H   0  0  0  0  0  0  0  0  0  0  0  0
   -0.1981   -8.4238   31.0155 H   0  0  0  0  0  0  0  0  0  0  0  0
   -1.8627   -7.3599   32.8600 H   0  0  0  0  0  0  0  0  0  0  0  0
   -0.2961   -8.1327   33.1572 H   0  0  0  0  0  0  0  0  0  0  0  0
   -0.5455   -6.3944   38.2551 H   0  0  0  0  0  0  0  0  0  0  0  0
    0.5900   -7.2670   40.6879 H   0  0  0  0  0  0  0  0  0  0  0  0
    2.7784   -8.6020   41.3142 H   0  0  0  0  0  0  0  0  0  0  0  0
  1  2  2  0
  2  3  1  0
  3  4  2  0
  4  5  1  0
  5  6  1  0
  6  7  1  0
  7  8  1  0
  8  9  1  0
  9 10  1  0
 10 11  1  0
 11 12  1  0
 12 13  1  0
 13 14  1  0
 14 15  1  0
 15 16  2  0
 15 17  2  0
 15 18  1  0
 18 19  2  0
 19 20  1  0
 20 21  1  0
 21 22  2  0
 11 23  1  0
 23 24  1  0
 24 25  1  0
  4 26  1  0
 26 27  1  0
 27 28  1  0
 28 29  2  0
 29 30  1  0
 30 31  1  0
 31  2  1  0
 25  6  1  0
 31 27  2  0
 25 10  1  0
 22 18  1  0
  6 32  1  0
  7 33  1  0
  7 34  1  0
  8 35  1  0
  8 36  1  0
  9 37  1  0
  9 38  1  0
 10 39  1  0
 12 40  1  0
 12 41  1  0
 13 42  1  0
 13 43  1  0
 14 44  1  0
 19 45  1  0
 21 46  1  0
 23 47  1  0
 24 48  1  0
 24 49  1  0
 26 50  1  0
 28 51  1  0
 29 52  1  0
M  END
>  <Energy>  (191) 
-13.558723708931655

>  <compound_id>  (191) 
2462

>  <target_id>  (191) 
1

>  <reference_id>  (191) 
187

>  <inspiration_ids>  (191) 
[166, 187]

>  <energy_score>  (191) 
-45.3850461321901

>  <distance_score>  (191) 
1.3778778104962237

>  <path>  (191) 
/opt/xchem-fragalysis-2/maxwin/BulkDock/SCRATCH/505736/C2462-P187/C2462-P187.minimised.mol

>  <scratch_subdir>  (191) 
/opt/xchem-fragalysis-2/maxwin/BulkDock/SCRATCH/505736/C2462-P187

>  <fragmenstein_runtime>  (191) 
2.3410303592681885

>  <fragmenstein_outcome>  (191) 
too moved

>  <fragmenstein_mode>  (191) 
expansion

>  <fragmenstein_error>  (191) 


$$$$
C2463-P166
     RDKit          3D

 49 53  0  0  0  0  0  0  0  0999 V2000
   -1.9064    1.6422   26.8006 N   0  0  0  0  0  0  0  0  0  0  0  0
   -1.5657    0.7408   27.7941 C   0  0  0  0  0  0  0  0  0  0  0  0
   -1.7933   -0.6144   27.6203 C   0  0  0  0  0  0  0  0  0  0  0  0
   -1.6297   -1.4746   28.6994 C   0  0  0  0  0  0  0  0  0  0  0  0
   -1.2476   -0.9450   29.9190 C   0  0  0  0  0  0  0  0  0  0  0  0
   -1.1354   -1.9307   31.3591 S   0  0  0  0  0  0  0  0  0  0  0  0
   -2.0314   -3.0611   31.2417 O   0  0  0  0  0  0  0  0  0  0  0  0
   -1.1744   -1.0537   32.5088 O   0  0  0  0  0  0  0  0  0  0  0  0
    0.4364   -2.4784   31.2561 N   0  0  0  0  0  0  0  0  0  0  0  0
    0.8635   -3.3200   30.1381 C   0  0  0  0  0  0  0  0  0  0  0  0
    1.6463   -4.5155   30.6802 C   0  0  0  0  0  0  0  0  0  0  0  0
    0.7461   -5.4482   31.4426 C   0  0  0  0  0  0  0  0  0  0  0  0
    0.4635   -5.1739   32.8531 C   0  0  0  0  0  0  0  0  0  0  0  0
   -0.3754   -5.9770   33.5393 C   0  0  0  0  0  0  0  0  0  0  0  0
   -0.7577   -5.6607   35.2024 S   0  0  0  0  0  0  0  0  0  0  0  0
    0.4111   -6.6794   36.0330 C   0  0  0  0  0  0  0  0  0  0  0  0
    1.3186   -7.2677   35.3230 N   0  0  0  0  0  0  0  0  0  0  0  0
    2.2523   -8.0613   35.9541 C   0  0  0  0  0  0  0  0  0  0  0  0
    3.0726   -8.6889   35.2929 O   0  0  0  0  0  0  0  0  0  0  0  0
    2.1482   -8.0713   37.3950 C   0  0  0  0  0  0  0  0  0  0  0  0
    3.2270   -8.8649   38.4360 S   0  0  0  0  0  0  0  0  0  0  0  0
    2.3103   -8.3966   39.8140 C   0  0  0  0  0  0  0  0  0  0  0  0
    1.2202   -7.6171   39.4776 C   0  0  0  0  0  0  0  0  0  0  0  0
    1.1491   -7.4308   38.0792 C   0  0  0  0  0  0  0  0  0  0  0  0
    0.2382   -6.7217   37.3922 N   0  0  0  0  0  0  0  0  0  0  0  0
   -0.9339   -7.0685   32.8679 N   0  0  0  0  0  0  0  0  0  0  0  0
   -1.7626   -8.0768   33.2610 C   0  0  0  0  0  0  0  0  0  0  0  0
   -2.0660   -8.8335   32.2307 N   0  0  0  0  0  0  0  0  0  0  0  0
   -1.4015   -8.3712   31.1373 N   0  0  0  0  0  0  0  0  0  0  0  0
   -0.7053   -7.3349   31.5280 C   0  0  0  0  0  0  0  0  0  0  0  0
    0.1749   -6.4958   30.8238 C   0  0  0  0  0  0  0  0  0  0  0  0
   -0.9942    0.4049   30.0032 C   0  0  0  0  0  0  0  0  0  0  0  0
   -1.1367    1.2531   28.9595 N   0  0  0  0  0  0  0  0  0  0  0  0
   -1.5345    1.4087   25.8955 H   0  0  0  0  0  0  0  0  0  0  0  0
   -1.6931    2.5863   27.1107 H   0  0  0  0  0  0  0  0  0  0  0  0
   -2.1723   -0.9923   26.6768 H   0  0  0  0  0  0  0  0  0  0  0  0
   -1.8538   -2.5282   28.5867 H   0  0  0  0  0  0  0  0  0  0  0  0
    1.1247   -1.9229   31.7611 H   0  0  0  0  0  0  0  0  0  0  0  0
    1.5061   -2.7239   29.4814 H   0  0  0  0  0  0  0  0  0  0  0  0
    0.0164   -3.6762   29.5443 H   0  0  0  0  0  0  0  0  0  0  0  0
    2.1067   -5.0445   29.8355 H   0  0  0  0  0  0  0  0  0  0  0  0
    2.4757   -4.1840   31.3177 H   0  0  0  0  0  0  0  0  0  0  0  0
    0.9276   -4.3087   33.3169 H   0  0  0  0  0  0  0  0  0  0  0  0
    2.6219   -8.7112   40.8007 H   0  0  0  0  0  0  0  0  0  0  0  0
    0.5277   -7.2179   40.2077 H   0  0  0  0  0  0  0  0  0  0  0  0
   -0.5310   -6.2075   37.8049 H   0  0  0  0  0  0  0  0  0  0  0  0
   -2.1113   -8.2262   34.2720 H   0  0  0  0  0  0  0  0  0  0  0  0
    0.3599   -6.7164   29.7855 H   0  0  0  0  0  0  0  0  0  0  0  0
   -0.6732    0.8744   30.9282 H   0  0  0  0  0  0  0  0  0  0  0  0
  1  2  1  0
  2  3  2  0
  3  4  1  0
  4  5  2  0
  5  6  1  0
  6  7  2  0
  6  8  2  0
  6  9  1  0
  9 10  1  0
 10 11  1  0
 11 12  1  0
 12 13  1  0
 13 14  2  0
 14 15  1  0
 15 16  1  0
 16 17  2  0
 17 18  1  0
 18 19  2  0
 18 20  1  0
 20 21  1  0
 21 22  1  0
 22 23  2  0
 23 24  1  0
 24 25  1  0
 14 26  1  0
 26 27  1  0
 27 28  2  0
 28 29  1  0
 29 30  2  0
 30 31  1  0
  5 32  1  0
 32 33  2  0
 33  2  1  0
 31 12  2  0
 25 16  1  0
 30 26  1  0
 24 20  2  0
  1 34  1  0
  1 35  1  0
  3 36  1  0
  4 37  1  0
  9 38  1  0
 10 39  1  0
 10 40  1  0
 11 41  1  0
 11 42  1  0
 13 43  1  0
 22 44  1  0
 23 45  1  0
 25 46  1  0
 27 47  1  0
 31 48  1  0
 32 49  1  0
M  END
>  <Energy>  (192) 
-112.37571560734756

>  <compound_id>  (192) 
2463

>  <target_id>  (192) 
1

>  <reference_id>  (192) 
166

>  <inspiration_ids>  (192) 
[166, 188]

>  <energy_score>  (192) 
-90.56483645947783

>  <distance_score>  (192) 
0.38236873822439993

>  <path>  (192) 
/opt/xchem-fragalysis-2/maxwin/BulkDock/SCRATCH/505736/C2463-P166/C2463-P166.minimised.mol

>  <scratch_subdir>  (192) 
/opt/xchem-fragalysis-2/maxwin/BulkDock/SCRATCH/505736/C2463-P166

>  <fragmenstein_runtime>  (192) 
3.032803535461426

>  <fragmenstein_outcome>  (192) 
acceptable

>  <fragmenstein_mode>  (192) 
expansion

>  <fragmenstein_error>  (192) 


$$$$
C2463-P188
     RDKit          3D

 49 53  0  0  0  0  0  0  0  0999 V2000
   -1.7919    1.8628   26.9809 N   0  0  0  0  0  0  0  0  0  0  0  0
   -1.4745    0.9059   27.9311 C   0  0  0  0  0  0  0  0  0  0  0  0
   -1.6774   -0.4392   27.6766 C   0  0  0  0  0  0  0  0  0  0  0  0
   -1.5438   -1.3652   28.7057 C   0  0  0  0  0  0  0  0  0  0  0  0
   -1.1910   -0.8985   29.9585 C   0  0  0  0  0  0  0  0  0  0  0  0
   -1.0970   -1.9412   31.3570 S   0  0  0  0  0  0  0  0  0  0  0  0
   -1.9331   -3.1046   31.1567 O   0  0  0  0  0  0  0  0  0  0  0  0
   -1.2278   -1.1166   32.5388 O   0  0  0  0  0  0  0  0  0  0  0  0
    0.5032   -2.4009   31.2889 N   0  0  0  0  0  0  0  0  0  0  0  0
    1.0166   -3.1564   30.1447 C   0  0  0  0  0  0  0  0  0  0  0  0
    1.8517   -4.3305   30.6561 C   0  0  0  0  0  0  0  0  0  0  0  0
    0.9769   -5.3068   31.3861 C   0  0  0  0  0  0  0  0  0  0  0  0
    0.6782   -5.0734   32.7999 C   0  0  0  0  0  0  0  0  0  0  0  0
   -0.1966   -5.8753   33.4378 C   0  0  0  0  0  0  0  0  0  0  0  0
   -0.6418   -5.5912   35.0914 S   0  0  0  0  0  0  0  0  0  0  0  0
    0.5677   -6.5232   35.9563 C   0  0  0  0  0  0  0  0  0  0  0  0
    1.5511   -7.0190   35.2790 N   0  0  0  0  0  0  0  0  0  0  0  0
    2.5200   -7.7423   35.9376 C   0  0  0  0  0  0  0  0  0  0  0  0
    3.3896   -8.3296   35.3022 O   0  0  0  0  0  0  0  0  0  0  0  0
    2.3696   -7.7618   37.3776 C   0  0  0  0  0  0  0  0  0  0  0  0
    3.4733   -8.4640   38.4596 S   0  0  0  0  0  0  0  0  0  0  0  0
    2.4472   -8.1237   39.7974 C   0  0  0  0  0  0  0  0  0  0  0  0
    1.3054   -7.4430   39.4212 C   0  0  0  0  0  0  0  0  0  0  0  0
    1.2842   -7.2318   38.0245 C   0  0  0  0  0  0  0  0  0  0  0  0
    0.3411   -6.6022   37.3055 N   0  0  0  0  0  0  0  0  0  0  0  0
   -0.7567   -6.9288   32.7147 N   0  0  0  0  0  0  0  0  0  0  0  0
   -1.6170   -7.9214   33.0565 C   0  0  0  0  0  0  0  0  0  0  0  0
   -1.9326   -8.6302   31.9966 N   0  0  0  0  0  0  0  0  0  0  0  0
   -1.2341   -8.1588   30.9319 N   0  0  0  0  0  0  0  0  0  0  0  0
   -0.5058   -7.1648   31.3739 C   0  0  0  0  0  0  0  0  0  0  0  0
    0.4082   -6.3252   30.7198 C   0  0  0  0  0  0  0  0  0  0  0  0
   -0.9310    0.4441   30.1183 C   0  0  0  0  0  0  0  0  0  0  0  0
   -1.0568    1.3499   29.1242 N   0  0  0  0  0  0  0  0  0  0  0  0
   -1.2817    1.7488   26.1228 H   0  0  0  0  0  0  0  0  0  0  0  0
   -1.6520    2.7824   27.3966 H   0  0  0  0  0  0  0  0  0  0  0  0
   -2.0503   -0.7531   26.7111 H   0  0  0  0  0  0  0  0  0  0  0  0
   -1.7725   -2.4104   28.5238 H   0  0  0  0  0  0  0  0  0  0  0  0
    1.1434   -1.8421   31.8503 H   0  0  0  0  0  0  0  0  0  0  0  0
    1.6437   -2.4916   29.5413 H   0  0  0  0  0  0  0  0  0  0  0  0
    0.2104   -3.5282   29.5045 H   0  0  0  0  0  0  0  0  0  0  0  0
    2.3391   -4.8179   29.8020 H   0  0  0  0  0  0  0  0  0  0  0  0
    2.6609   -3.9807   31.3096 H   0  0  0  0  0  0  0  0  0  0  0  0
    1.1480   -4.2326   33.3007 H   0  0  0  0  0  0  0  0  0  0  0  0
    2.7398   -8.4296   40.7927 H   0  0  0  0  0  0  0  0  0  0  0  0
    0.5421   -7.1307   40.1221 H   0  0  0  0  0  0  0  0  0  0  0  0
   -0.4884   -6.1648   37.6877 H   0  0  0  0  0  0  0  0  0  0  0  0
   -1.9836   -8.0827   34.0585 H   0  0  0  0  0  0  0  0  0  0  0  0
    0.6076   -6.4999   29.6756 H   0  0  0  0  0  0  0  0  0  0  0  0
   -0.6190    0.8606   31.0715 H   0  0  0  0  0  0  0  0  0  0  0  0
  1  2  1  0
  2  3  2  0
  3  4  1  0
  4  5  2  0
  5  6  1  0
  6  7  2  0
  6  8  2  0
  6  9  1  0
  9 10  1  0
 10 11  1  0
 11 12  1  0
 12 13  1  0
 13 14  2  0
 14 15  1  0
 15 16  1  0
 16 17  2  0
 17 18  1  0
 18 19  2  0
 18 20  1  0
 20 21  1  0
 21 22  1  0
 22 23  2  0
 23 24  1  0
 24 25  1  0
 14 26  1  0
 26 27  1  0
 27 28  2  0
 28 29  1  0
 29 30  2  0
 30 31  1  0
  5 32  1  0
 32 33  2  0
 33  2  1  0
 31 12  2  0
 25 16  1  0
 30 26  1  0
 24 20  2  0
  1 34  1  0
  1 35  1  0
  3 36  1  0
  4 37  1  0
  9 38  1  0
 10 39  1  0
 10 40  1  0
 11 41  1  0
 11 42  1  0
 13 43  1  0
 22 44  1  0
 23 45  1  0
 25 46  1  0
 27 47  1  0
 31 48  1  0
 32 49  1  0
M  END
>  <Energy>  (193) 
-110.52524248052393

>  <compound_id>  (193) 
2463

>  <target_id>  (193) 
1

>  <reference_id>  (193) 
188

>  <inspiration_ids>  (193) 
[166, 188]

>  <energy_score>  (193) 
-88.71436333265416

>  <distance_score>  (193) 
0.5593813289040414

>  <path>  (193) 
/opt/xchem-fragalysis-2/maxwin/BulkDock/SCRATCH/505736/C2463-P188/C2463-P188.minimised.mol

>  <scratch_subdir>  (193) 
/opt/xchem-fragalysis-2/maxwin/BulkDock/SCRATCH/505736/C2463-P188

>  <fragmenstein_runtime>  (193) 
3.083291530609131

>  <fragmenstein_outcome>  (193) 
acceptable

>  <fragmenstein_mode>  (193) 
expansion

>  <fragmenstein_error>  (193) 


$$$$
C2463-P166
     RDKit          3D

 49 53  0  0  0  0  0  0  0  0999 V2000
   -1.7348    1.4506   26.6714 N   0  0  0  0  0  0  0  0  0  0  0  0
   -1.4213    0.6269   27.7535 C   0  0  0  0  0  0  0  0  0  0  0  0
   -0.8940    1.1769   28.9135 C   0  0  0  0  0  0  0  0  0  0  0  0
   -0.7824    0.3893   30.0586 C   0  0  0  0  0  0  0  0  0  0  0  0
   -1.2020   -0.9334   30.0017 C   0  0  0  0  0  0  0  0  0  0  0  0
   -1.1398   -1.9557   31.4226 S   0  0  0  0  0  0  0  0  0  0  0  0
   -1.9844   -3.1159   31.2409 O   0  0  0  0  0  0  0  0  0  0  0  0
   -1.2686   -1.1049   32.5860 O   0  0  0  0  0  0  0  0  0  0  0  0
    0.4548   -2.4379   31.3917 N   0  0  0  0  0  0  0  0  0  0  0  0
    0.9770   -3.2181   30.2706 C   0  0  0  0  0  0  0  0  0  0  0  0
    1.7437   -4.4139   30.8234 C   0  0  0  0  0  0  0  0  0  0  0  0
    0.8035   -5.3599   31.5146 C   0  0  0  0  0  0  0  0  0  0  0  0
    0.4658   -5.1270   32.9205 C   0  0  0  0  0  0  0  0  0  0  0  0
   -0.3948   -5.9531   33.5491 C   0  0  0  0  0  0  0  0  0  0  0  0
   -0.8172   -5.7037   35.2139 S   0  0  0  0  0  0  0  0  0  0  0  0
    0.3759   -6.7013   36.0370 C   0  0  0  0  0  0  0  0  0  0  0  0
    1.2851   -7.2796   35.3213 N   0  0  0  0  0  0  0  0  0  0  0  0
    2.2361   -8.0576   35.9470 C   0  0  0  0  0  0  0  0  0  0  0  0
    3.0650   -8.6686   35.2811 O   0  0  0  0  0  0  0  0  0  0  0  0
    2.1402   -8.0697   37.3884 C   0  0  0  0  0  0  0  0  0  0  0  0
    3.2330   -8.8530   38.4226 S   0  0  0  0  0  0  0  0  0  0  0  0
    2.3186   -8.3966   39.8061 C   0  0  0  0  0  0  0  0  0  0  0  0
    1.2191   -7.6274   39.4768 C   0  0  0  0  0  0  0  0  0  0  0  0
    1.1384   -7.4402   38.0789 C   0  0  0  0  0  0  0  0  0  0  0  0
    0.2161   -6.7402   37.3978 N   0  0  0  0  0  0  0  0  0  0  0  0
   -0.9251   -7.0240   32.8223 N   0  0  0  0  0  0  0  0  0  0  0  0
   -1.7490   -8.0582   33.1608 C   0  0  0  0  0  0  0  0  0  0  0  0
   -2.0145   -8.7896   32.1015 N   0  0  0  0  0  0  0  0  0  0  0  0
   -1.3268   -8.2779   31.0403 N   0  0  0  0  0  0  0  0  0  0  0  0
   -0.6539   -7.2441   31.4810 C   0  0  0  0  0  0  0  0  0  0  0  0
    0.2476   -6.3781   30.8351 C   0  0  0  0  0  0  0  0  0  0  0  0
   -1.6868   -1.4198   28.8114 C   0  0  0  0  0  0  0  0  0  0  0  0
   -1.8203   -0.6510   27.7078 N   0  0  0  0  0  0  0  0  0  0  0  0
   -1.0129    2.1398   26.5041 H   0  0  0  0  0  0  0  0  0  0  0  0
   -2.6054    1.9426   26.8694 H   0  0  0  0  0  0  0  0  0  0  0  0
   -0.5960    2.2205   28.9327 H   0  0  0  0  0  0  0  0  0  0  0  0
   -0.3892    0.8163   30.9764 H   0  0  0  0  0  0  0  0  0  0  0  0
    1.0902   -1.8774   31.9561 H   0  0  0  0  0  0  0  0  0  0  0  0
    0.1805   -3.5596   29.6015 H   0  0  0  0  0  0  0  0  0  0  0  0
    1.6508   -2.5812   29.6877 H   0  0  0  0  0  0  0  0  0  0  0  0
    2.2524   -4.9227   29.9945 H   0  0  0  0  0  0  0  0  0  0  0  0
    2.5345   -4.0910   31.5124 H   0  0  0  0  0  0  0  0  0  0  0  0
    0.9165   -4.2809   33.4301 H   0  0  0  0  0  0  0  0  0  0  0  0
    2.6383   -8.7107   40.7903 H   0  0  0  0  0  0  0  0  0  0  0  0
    0.5262   -7.2371   40.2112 H   0  0  0  0  0  0  0  0  0  0  0  0
   -0.5594   -6.2396   37.8154 H   0  0  0  0  0  0  0  0  0  0  0  0
   -2.1187   -8.2408   34.1586 H   0  0  0  0  0  0  0  0  0  0  0  0
    0.4693   -6.5595   29.7945 H   0  0  0  0  0  0  0  0  0  0  0  0
   -2.0174   -2.4450   28.6915 H   0  0  0  0  0  0  0  0  0  0  0  0
  1  2  1  0
  2  3  2  0
  3  4  1  0
  4  5  2  0
  5  6  1  0
  6  7  2  0
  6  8  2  0
  6  9  1  0
  9 10  1  0
 10 11  1  0
 11 12  1  0
 12 13  1  0
 13 14  2  0
 14 15  1  0
 15 16  1  0
 16 17  2  0
 17 18  1  0
 18 19  2  0
 18 20  1  0
 20 21  1  0
 21 22  1  0
 22 23  2  0
 23 24  1  0
 24 25  1  0
 14 26  1  0
 26 27  1  0
 27 28  2  0
 28 29  1  0
 29 30  2  0
 30 31  1  0
  5 32  1  0
 32 33  2  0
 33  2  1  0
 31 12  2  0
 25 16  1  0
 30 26  1  0
 24 20  2  0
  1 34  1  0
  1 35  1  0
  3 36  1  0
  4 37  1  0
  9 38  1  0
 10 39  1  0
 10 40  1  0
 11 41  1  0
 11 42  1  0
 13 43  1  0
 22 44  1  0
 23 45  1  0
 25 46  1  0
 27 47  1  0
 31 48  1  0
 32 49  1  0
M  END
>  <Energy>  (194) 
-101.07376526123444

>  <compound_id>  (194) 
2463

>  <target_id>  (194) 
1

>  <reference_id>  (194) 
166

>  <inspiration_ids>  (194) 
[166, 189]

>  <energy_score>  (194) 
-79.26288611336489

>  <distance_score>  (194) 
0.5046112610855654

>  <path>  (194) 
/opt/xchem-fragalysis-2/maxwin/BulkDock/SCRATCH/505736/C2463-P166/C2463-P166.minimised.mol

>  <scratch_subdir>  (194) 
/opt/xchem-fragalysis-2/maxwin/BulkDock/SCRATCH/505736/C2463-P166

>  <fragmenstein_runtime>  (194) 
2.8441572189331055

>  <fragmenstein_outcome>  (194) 
acceptable

>  <fragmenstein_mode>  (194) 
expansion

>  <fragmenstein_error>  (194) 


$$$$
C2463-P189
     RDKit          3D

 49 53  0  0  0  0  0  0  0  0999 V2000
   -2.1919    1.5284   26.7700 N   0  0  0  0  0  0  0  0  0  0  0  0
   -1.8466    0.6785   27.8226 C   0  0  0  0  0  0  0  0  0  0  0  0
   -1.1877    1.1889   28.9337 C   0  0  0  0  0  0  0  0  0  0  0  0
   -0.9887    0.3753   30.0462 C   0  0  0  0  0  0  0  0  0  0  0  0
   -1.4552   -0.9341   30.0071 C   0  0  0  0  0  0  0  0  0  0  0  0
   -1.2539   -1.9842   31.3945 S   0  0  0  0  0  0  0  0  0  0  0  0
   -2.0213   -3.1977   31.2179 O   0  0  0  0  0  0  0  0  0  0  0  0
   -1.3911   -1.1697   32.5827 O   0  0  0  0  0  0  0  0  0  0  0  0
    0.3680   -2.3490   31.2829 N   0  0  0  0  0  0  0  0  0  0  0  0
    0.8969   -3.0877   30.1373 C   0  0  0  0  0  0  0  0  0  0  0  0
    1.7706   -4.2296   30.6521 C   0  0  0  0  0  0  0  0  0  0  0  0
    0.9286   -5.2194   31.4035 C   0  0  0  0  0  0  0  0  0  0  0  0
    0.6391   -4.9692   32.8172 C   0  0  0  0  0  0  0  0  0  0  0  0
   -0.1954   -5.7900   33.4840 C   0  0  0  0  0  0  0  0  0  0  0  0
   -0.5905   -5.5003   35.1497 S   0  0  0  0  0  0  0  0  0  0  0  0
    0.5765   -6.5083   35.9820 C   0  0  0  0  0  0  0  0  0  0  0  0
    1.5205   -7.0432   35.2798 N   0  0  0  0  0  0  0  0  0  0  0  0
    2.4705   -7.8158   35.9094 C   0  0  0  0  0  0  0  0  0  0  0  0
    3.3043   -8.4226   35.2458 O   0  0  0  0  0  0  0  0  0  0  0  0
    2.3346   -7.8638   37.3489 C   0  0  0  0  0  0  0  0  0  0  0  0
    3.4215   -8.6351   38.3994 S   0  0  0  0  0  0  0  0  0  0  0  0
    2.4242   -8.2884   39.7568 C   0  0  0  0  0  0  0  0  0  0  0  0
    1.3129   -7.5428   39.4133 C   0  0  0  0  0  0  0  0  0  0  0  0
    1.2832   -7.2990   38.0226 C   0  0  0  0  0  0  0  0  0  0  0  0
    0.3591   -6.6116   37.3307 N   0  0  0  0  0  0  0  0  0  0  0  0
   -0.7291   -6.8794   32.7900 N   0  0  0  0  0  0  0  0  0  0  0  0
   -1.5333   -7.9093   33.1722 C   0  0  0  0  0  0  0  0  0  0  0  0
   -1.8314   -8.6630   32.1375 N   0  0  0  0  0  0  0  0  0  0  0  0
   -1.1745   -8.1751   31.0457 N   0  0  0  0  0  0  0  0  0  0  0  0
   -0.4882   -7.1326   31.4485 C   0  0  0  0  0  0  0  0  0  0  0  0
    0.3852   -6.2690   30.7627 C   0  0  0  0  0  0  0  0  0  0  0  0
   -2.0978   -1.3750   28.8739 C   0  0  0  0  0  0  0  0  0  0  0  0
   -2.3264   -0.5735   27.8075 N   0  0  0  0  0  0  0  0  0  0  0  0
   -1.4628    2.2052   26.5826 H   0  0  0  0  0  0  0  0  0  0  0  0
   -3.0417    2.0341   27.0180 H   0  0  0  0  0  0  0  0  0  0  0  0
   -0.8404    2.2167   28.9360 H   0  0  0  0  0  0  0  0  0  0  0  0
   -0.4842    0.7674   30.9241 H   0  0  0  0  0  0  0  0  0  0  0  0
    0.9888   -1.7665   31.8411 H   0  0  0  0  0  0  0  0  0  0  0  0
    0.0966   -3.4782   29.4994 H   0  0  0  0  0  0  0  0  0  0  0  0
    1.4998   -2.4039   29.5304 H   0  0  0  0  0  0  0  0  0  0  0  0
    2.2612   -4.7146   29.7985 H   0  0  0  0  0  0  0  0  0  0  0  0
    2.5770   -3.8501   31.2923 H   0  0  0  0  0  0  0  0  0  0  0  0
    1.0927   -4.1079   33.2979 H   0  0  0  0  0  0  0  0  0  0  0  0
    2.7064   -8.6454   40.7384 H   0  0  0  0  0  0  0  0  0  0  0  0
    0.5729   -7.2196   40.1343 H   0  0  0  0  0  0  0  0  0  0  0  0
   -0.4178   -6.1081   37.7437 H   0  0  0  0  0  0  0  0  0  0  0  0
   -1.8756   -8.0633   34.1837 H   0  0  0  0  0  0  0  0  0  0  0  0
    0.5712   -6.4547   29.7163 H   0  0  0  0  0  0  0  0  0  0  0  0
   -2.4883   -2.3819   28.7752 H   0  0  0  0  0  0  0  0  0  0  0  0
  1  2  1  0
  2  3  2  0
  3  4  1  0
  4  5  2  0
  5  6  1  0
  6  7  2  0
  6  8  2  0
  6  9  1  0
  9 10  1  0
 10 11  1  0
 11 12  1  0
 12 13  1  0
 13 14  2  0
 14 15  1  0
 15 16  1  0
 16 17  2  0
 17 18  1  0
 18 19  2  0
 18 20  1  0
 20 21  1  0
 21 22  1  0
 22 23  2  0
 23 24  1  0
 24 25  1  0
 14 26  1  0
 26 27  1  0
 27 28  2  0
 28 29  1  0
 29 30  2  0
 30 31  1  0
  5 32  1  0
 32 33  2  0
 33  2  1  0
 31 12  2  0
 25 16  1  0
 30 26  1  0
 24 20  2  0
  1 34  1  0
  1 35  1  0
  3 36  1  0
  4 37  1  0
  9 38  1  0
 10 39  1  0
 10 40  1  0
 11 41  1  0
 11 42  1  0
 13 43  1  0
 22 44  1  0
 23 45  1  0
 25 46  1  0
 27 47  1  0
 31 48  1  0
 32 49  1  0
M  END
>  <Energy>  (195) 
-100.46106048013542

>  <compound_id>  (195) 
2463

>  <target_id>  (195) 
1

>  <reference_id>  (195) 
189

>  <inspiration_ids>  (195) 
[166, 189]

>  <energy_score>  (195) 
-78.65018133226707

>  <distance_score>  (195) 
0.5384456281922764

>  <path>  (195) 
/opt/xchem-fragalysis-2/maxwin/BulkDock/SCRATCH/505736/C2463-P189/C2463-P189.minimised.mol

>  <scratch_subdir>  (195) 
/opt/xchem-fragalysis-2/maxwin/BulkDock/SCRATCH/505736/C2463-P189

>  <fragmenstein_runtime>  (195) 
2.8390607833862305

>  <fragmenstein_outcome>  (195) 
acceptable

>  <fragmenstein_mode>  (195) 
expansion

>  <fragmenstein_error>  (195) 


$$$$
C2464-P166
     RDKit          3D

 40 43  0  0  0  0  0  0  0  0999 V2000
    0.5933    0.6791   29.0674 C   0  0  0  0  0  0  0  0  0  0  0  0
    0.5581   -0.4279   28.0259 C   0  0  0  0  0  0  0  0  0  0  0  0
    0.4183   -1.7045   28.6618 O   0  0  0  0  0  0  0  0  0  0  0  0
   -0.8299   -1.9306   29.1305 C   0  0  0  0  0  0  0  0  0  0  0  0
   -1.8220   -1.2499   28.9264 O   0  0  0  0  0  0  0  0  0  0  0  0
   -0.8612   -3.0804   30.0435 C   0  0  0  0  0  0  0  0  0  0  0  0
    0.0847   -4.0234   30.1991 C   0  0  0  0  0  0  0  0  0  0  0  0
    0.0574   -4.8453   31.3992 C   0  0  0  0  0  0  0  0  0  0  0  0
    0.4262   -4.1734   32.5148 C   0  0  0  0  0  0  0  0  0  0  0  0
    0.1146   -4.6365   33.8424 C   0  0  0  0  0  0  0  0  0  0  0  0
   -0.5540   -5.7911   33.9926 C   0  0  0  0  0  0  0  0  0  0  0  0
   -1.1223   -6.2415   35.5535 S   0  0  0  0  0  0  0  0  0  0  0  0
    0.2903   -7.0043   36.2463 C   0  0  0  0  0  0  0  0  0  0  0  0
    1.1824   -7.4853   35.4440 N   0  0  0  0  0  0  0  0  0  0  0  0
    2.2782   -8.1272   35.9838 C   0  0  0  0  0  0  0  0  0  0  0  0
    3.1207   -8.6291   35.2479 O   0  0  0  0  0  0  0  0  0  0  0  0
    2.2973   -8.1647   37.4291 C   0  0  0  0  0  0  0  0  0  0  0  0
    3.5119   -8.8923   38.3625 S   0  0  0  0  0  0  0  0  0  0  0  0
    2.6763   -8.5219   39.8203 C   0  0  0  0  0  0  0  0  0  0  0  0
    1.5041   -7.8287   39.5908 C   0  0  0  0  0  0  0  0  0  0  0  0
    1.3075   -7.6271   38.2079 C   0  0  0  0  0  0  0  0  0  0  0  0
    0.2822   -6.9999   37.6146 N   0  0  0  0  0  0  0  0  0  0  0  0
   -0.8236   -6.5652   32.8590 N   0  0  0  0  0  0  0  0  0  0  0  0
   -1.4087   -7.7955   32.7096 C   0  0  0  0  0  0  0  0  0  0  0  0
   -1.4680   -8.1213   31.4383 N   0  0  0  0  0  0  0  0  0  0  0  0
   -0.9058   -7.0921   30.7153 N   0  0  0  0  0  0  0  0  0  0  0  0
   -0.5215   -6.1539   31.5604 C   0  0  0  0  0  0  0  0  0  0  0  0
    0.7986    1.6435   28.5935 H   0  0  0  0  0  0  0  0  0  0  0  0
   -0.3531    0.7610   29.6098 H   0  0  0  0  0  0  0  0  0  0  0  0
    1.3713    0.4802   29.8119 H   0  0  0  0  0  0  0  0  0  0  0  0
   -0.2413   -0.2588   27.2965 H   0  0  0  0  0  0  0  0  0  0  0  0
    1.5085   -0.4413   27.4839 H   0  0  0  0  0  0  0  0  0  0  0  0
   -1.7195   -3.0343   30.7073 H   0  0  0  0  0  0  0  0  0  0  0  0
    0.9468   -4.0967   29.5441 H   0  0  0  0  0  0  0  0  0  0  0  0
    0.8334   -3.1639   32.4598 H   0  0  0  0  0  0  0  0  0  0  0  0
    0.3414   -3.9755   34.6740 H   0  0  0  0  0  0  0  0  0  0  0  0
    3.0918   -8.8276   40.7709 H   0  0  0  0  0  0  0  0  0  0  0  0
    0.8411   -7.5036   40.3823 H   0  0  0  0  0  0  0  0  0  0  0  0
   -0.5252   -6.6244   38.0969 H   0  0  0  0  0  0  0  0  0  0  0  0
   -1.7585   -8.4006   33.5341 H   0  0  0  0  0  0  0  0  0  0  0  0
  1  2  1  0
  2  3  1  0
  3  4  1  0
  4  5  2  0
  4  6  1  0
  6  7  2  3
  7  8  1  0
  8  9  2  0
  9 10  1  0
 10 11  2  0
 11 12  1  0
 12 13  1  0
 13 14  2  0
 14 15  1  0
 15 16  2  0
 15 17  1  0
 17 18  1  0
 18 19  1  0
 19 20  2  0
 20 21  1  0
 21 22  1  0
 11 23  1  0
 23 24  1  0
 24 25  2  0
 25 26  1  0
 26 27  2  0
 27  8  1  0
 22 13  1  0
 27 23  1  0
 21 17  2  0
  1 28  1  0
  1 29  1  0
  1 30  1  0
  2 31  1  0
  2 32  1  0
  6 33  1  0
  7 34  1  0
  9 35  1  0
 10 36  1  0
 19 37  1  0
 20 38  1  0
 22 39  1  0
 24 40  1  0
M  END
>  <Energy>  (196) 
-12.373371265895948

>  <compound_id>  (196) 
2464

>  <target_id>  (196) 
1

>  <reference_id>  (196) 
166

>  <inspiration_ids>  (196) 
[166, 190]

>  <energy_score>  (196) 
-69.36493247586891

>  <distance_score>  (196) 
1.1508000359997115

>  <path>  (196) 
/opt/xchem-fragalysis-2/maxwin/BulkDock/SCRATCH/505736/C2464-P166/C2464-P166.minimised.mol

>  <scratch_subdir>  (196) 
/opt/xchem-fragalysis-2/maxwin/BulkDock/SCRATCH/505736/C2464-P166

>  <fragmenstein_runtime>  (196) 
2.0800795555114746

>  <fragmenstein_outcome>  (196) 
too moved

>  <fragmenstein_mode>  (196) 
expansion

>  <fragmenstein_error>  (196) 


$$$$
C2464-P190
     RDKit          3D

 40 43  0  0  0  0  0  0  0  0999 V2000
    0.6030    0.7441   29.3134 C   0  0  0  0  0  0  0  0  0  0  0  0
    0.6521   -0.2906   28.2031 C   0  0  0  0  0  0  0  0  0  0  0  0
    0.5035   -1.6066   28.7505 O   0  0  0  0  0  0  0  0  0  0  0  0
   -0.7699   -1.8996   29.1006 C   0  0  0  0  0  0  0  0  0  0  0  0
   -1.7674   -1.2513   28.8317 O   0  0  0  0  0  0  0  0  0  0  0  0
   -0.8262   -3.0838   29.9698 C   0  0  0  0  0  0  0  0  0  0  0  0
    0.1569   -3.9802   30.1633 C   0  0  0  0  0  0  0  0  0  0  0  0
    0.1286   -4.8044   31.3603 C   0  0  0  0  0  0  0  0  0  0  0  0
    0.4840   -4.1314   32.4797 C   0  0  0  0  0  0  0  0  0  0  0  0
    0.1980   -4.6138   33.8068 C   0  0  0  0  0  0  0  0  0  0  0  0
   -0.4361   -5.7881   33.9526 C   0  0  0  0  0  0  0  0  0  0  0  0
   -0.9813   -6.2731   35.5135 S   0  0  0  0  0  0  0  0  0  0  0  0
    0.4705   -6.9240   36.2234 C   0  0  0  0  0  0  0  0  0  0  0  0
    1.3788   -7.3861   35.4298 N   0  0  0  0  0  0  0  0  0  0  0  0
    2.5091   -7.9553   35.9778 C   0  0  0  0  0  0  0  0  0  0  0  0
    3.3594   -8.4520   35.2474 O   0  0  0  0  0  0  0  0  0  0  0  0
    2.5200   -7.9807   37.4248 C   0  0  0  0  0  0  0  0  0  0  0  0
    3.7418   -8.6782   38.3717 S   0  0  0  0  0  0  0  0  0  0  0  0
    2.8607   -8.3693   39.8169 C   0  0  0  0  0  0  0  0  0  0  0  0
    1.6764   -7.7013   39.5763 C   0  0  0  0  0  0  0  0  0  0  0  0
    1.5015   -7.4828   38.1937 C   0  0  0  0  0  0  0  0  0  0  0  0
    0.4627   -6.8894   37.5899 N   0  0  0  0  0  0  0  0  0  0  0  0
   -0.7029   -6.5517   32.8113 N   0  0  0  0  0  0  0  0  0  0  0  0
   -1.2694   -7.7884   32.6530 C   0  0  0  0  0  0  0  0  0  0  0  0
   -1.3487   -8.1003   31.3801 N   0  0  0  0  0  0  0  0  0  0  0  0
   -0.8063   -7.0580   30.6629 N   0  0  0  0  0  0  0  0  0  0  0  0
   -0.4263   -6.1224   31.5138 C   0  0  0  0  0  0  0  0  0  0  0  0
    0.8021    1.7435   28.9156 H   0  0  0  0  0  0  0  0  0  0  0  0
   -0.3721    0.7618   29.8098 H   0  0  0  0  0  0  0  0  0  0  0  0
    1.3481    0.5169   30.0830 H   0  0  0  0  0  0  0  0  0  0  0  0
   -0.1134   -0.0845   27.4485 H   0  0  0  0  0  0  0  0  0  0  0  0
    1.6278   -0.2531   27.7085 H   0  0  0  0  0  0  0  0  0  0  0  0
   -1.7224   -3.0889   30.5818 H   0  0  0  0  0  0  0  0  0  0  0  0
    1.0638   -3.9845   29.5660 H   0  0  0  0  0  0  0  0  0  0  0  0
    0.8731   -3.1144   32.4300 H   0  0  0  0  0  0  0  0  0  0  0  0
    0.4153   -3.9547   34.6424 H   0  0  0  0  0  0  0  0  0  0  0  0
    3.2585   -8.6920   40.7699 H   0  0  0  0  0  0  0  0  0  0  0  0
    0.9859   -7.4200   40.3612 H   0  0  0  0  0  0  0  0  0  0  0  0
   -0.3508   -6.5231   38.0696 H   0  0  0  0  0  0  0  0  0  0  0  0
   -1.6045   -8.3992   33.4762 H   0  0  0  0  0  0  0  0  0  0  0  0
  1  2  1  0
  2  3  1  0
  3  4  1  0
  4  5  2  0
  4  6  1  0
  6  7  2  3
  7  8  1  0
  8  9  2  0
  9 10  1  0
 10 11  2  0
 11 12  1  0
 12 13  1  0
 13 14  2  0
 14 15  1  0
 15 16  2  0
 15 17  1  0
 17 18  1  0
 18 19  1  0
 19 20  2  0
 20 21  1  0
 21 22  1  0
 11 23  1  0
 23 24  1  0
 24 25  2  0
 25 26  1  0
 26 27  2  0
 27  8  1  0
 22 13  1  0
 27 23  1  0
 21 17  2  0
  1 28  1  0
  1 29  1  0
  1 30  1  0
  2 31  1  0
  2 32  1  0
  6 33  1  0
  7 34  1  0
  9 35  1  0
 10 36  1  0
 19 37  1  0
 20 38  1  0
 22 39  1  0
 24 40  1  0
M  END
>  <Energy>  (197) 
-11.718289142657255

>  <compound_id>  (197) 
2464

>  <target_id>  (197) 
1

>  <reference_id>  (197) 
190

>  <inspiration_ids>  (197) 
[166, 190]

>  <energy_score>  (197) 
-68.70985035263146

>  <distance_score>  (197) 
1.1979255691934583

>  <path>  (197) 
/opt/xchem-fragalysis-2/maxwin/BulkDock/SCRATCH/505736/C2464-P190/C2464-P190.minimised.mol

>  <scratch_subdir>  (197) 
/opt/xchem-fragalysis-2/maxwin/BulkDock/SCRATCH/505736/C2464-P190

>  <fragmenstein_runtime>  (197) 
2.0505170822143555

>  <fragmenstein_outcome>  (197) 
too moved

>  <fragmenstein_mode>  (197) 
expansion

>  <fragmenstein_error>  (197) 


$$$$
C2464-P166
     RDKit          3D

 40 43  0  0  0  0  0  0  0  0999 V2000
   -1.3900    0.3201   27.5652 C   0  0  0  0  0  0  0  0  0  0  0  0
   -0.1186   -0.0349   28.3015 C   0  0  0  0  0  0  0  0  0  0  0  0
   -0.3128   -1.1569   29.1699 O   0  0  0  0  0  0  0  0  0  0  0  0
   -1.0783   -0.9354   30.2578 C   0  0  0  0  0  0  0  0  0  0  0  0
   -1.6443    0.1003   30.5760 O   0  0  0  0  0  0  0  0  0  0  0  0
   -1.0917   -2.1064   31.1468 C   0  0  0  0  0  0  0  0  0  0  0  0
   -0.4430   -3.2631   30.9259 C   0  0  0  0  0  0  0  0  0  0  0  0
   -0.3165   -4.2822   31.9543 C   0  0  0  0  0  0  0  0  0  0  0  0
    0.1129   -3.8315   33.1539 C   0  0  0  0  0  0  0  0  0  0  0  0
   -0.0725   -4.5846   34.3629 C   0  0  0  0  0  0  0  0  0  0  0  0
   -0.6331   -5.8007   34.2900 C   0  0  0  0  0  0  0  0  0  0  0  0
   -1.1568   -6.5693   35.7224 S   0  0  0  0  0  0  0  0  0  0  0  0
    0.3403   -7.1863   36.3602 C   0  0  0  0  0  0  0  0  0  0  0  0
    1.2282   -7.6125   35.5241 N   0  0  0  0  0  0  0  0  0  0  0  0
    2.3826   -8.1757   36.0274 C   0  0  0  0  0  0  0  0  0  0  0  0
    3.2337   -8.6180   35.2645 O   0  0  0  0  0  0  0  0  0  0  0  0
    2.4434   -8.2249   37.4719 C   0  0  0  0  0  0  0  0  0  0  0  0
    3.7021   -8.9260   38.3650 S   0  0  0  0  0  0  0  0  0  0  0  0
    2.8946   -8.5961   39.8487 C   0  0  0  0  0  0  0  0  0  0  0  0
    1.6943   -7.9412   39.6583 C   0  0  0  0  0  0  0  0  0  0  0  0
    1.4559   -7.7344   38.2837 C   0  0  0  0  0  0  0  0  0  0  0  0
    0.3894   -7.1481   37.7257 N   0  0  0  0  0  0  0  0  0  0  0  0
   -0.8614   -6.3711   33.0399 N   0  0  0  0  0  0  0  0  0  0  0  0
   -1.2992   -7.6148   32.6654 C   0  0  0  0  0  0  0  0  0  0  0  0
   -1.3134   -7.7132   31.3558 N   0  0  0  0  0  0  0  0  0  0  0  0
   -0.8851   -6.5060   30.8429 N   0  0  0  0  0  0  0  0  0  0  0  0
   -0.6632   -5.6807   31.8493 C   0  0  0  0  0  0  0  0  0  0  0  0
   -2.0731    0.8621   28.2221 H   0  0  0  0  0  0  0  0  0  0  0  0
   -1.1735    0.9777   26.7185 H   0  0  0  0  0  0  0  0  0  0  0  0
   -1.9087   -0.5728   27.2042 H   0  0  0  0  0  0  0  0  0  0  0  0
    0.2716    0.8193   28.8670 H   0  0  0  0  0  0  0  0  0  0  0  0
    0.6550   -0.3258   27.5848 H   0  0  0  0  0  0  0  0  0  0  0  0
   -1.6177   -1.9176   32.0780 H   0  0  0  0  0  0  0  0  0  0  0  0
    0.0600   -3.4648   29.9825 H   0  0  0  0  0  0  0  0  0  0  0  0
    0.4321   -2.8007   33.3018 H   0  0  0  0  0  0  0  0  0  0  0  0
    0.1100   -4.0753   35.3051 H   0  0  0  0  0  0  0  0  0  0  0  0
    3.3461   -8.8971   40.7844 H   0  0  0  0  0  0  0  0  0  0  0  0
    1.0407   -7.6489   40.4700 H   0  0  0  0  0  0  0  0  0  0  0  0
   -0.4343   -6.8496   38.2327 H   0  0  0  0  0  0  0  0  0  0  0  0
   -1.5689   -8.3951   33.3637 H   0  0  0  0  0  0  0  0  0  0  0  0
  1  2  1  0
  2  3  1  0
  3  4  1  0
  4  5  2  0
  4  6  1  0
  6  7  2  3
  7  8  1  0
  8  9  2  0
  9 10  1  0
 10 11  2  0
 11 12  1  0
 12 13  1  0
 13 14  2  0
 14 15  1  0
 15 16  2  0
 15 17  1  0
 17 18  1  0
 18 19  1  0
 19 20  2  0
 20 21  1  0
 21 22  1  0
 11 23  1  0
 23 24  1  0
 24 25  2  0
 25 26  1  0
 26 27  2  0
 27  8  1  0
 22 13  1  0
 27 23  1  0
 21 17  2  0
  1 28  1  0
  1 29  1  0
  1 30  1  0
  2 31  1  0
  2 32  1  0
  6 33  1  0
  7 34  1  0
  9 35  1  0
 10 36  1  0
 19 37  1  0
 20 38  1  0
 22 39  1  0
 24 40  1  0
M  END
>  <Energy>  (198) 
-13.487512892474525

>  <compound_id>  (198) 
2464

>  <target_id>  (198) 
1

>  <reference_id>  (198) 
166

>  <inspiration_ids>  (198) 
[166, 194]

>  <energy_score>  (198) 
-70.47907410244844

>  <distance_score>  (198) 
1.4870875835794608

>  <path>  (198) 
/opt/xchem-fragalysis-2/maxwin/BulkDock/SCRATCH/505736/C2464-P166/C2464-P166.minimised.mol

>  <scratch_subdir>  (198) 
/opt/xchem-fragalysis-2/maxwin/BulkDock/SCRATCH/505736/C2464-P166

>  <fragmenstein_runtime>  (198) 
2.1638023853302

>  <fragmenstein_outcome>  (198) 
too moved

>  <fragmenstein_mode>  (198) 
expansion

>  <fragmenstein_error>  (198) 


$$$$
C2464-P194
     RDKit          3D

 40 43  0  0  0  0  0  0  0  0999 V2000
   -1.4323    0.3814   27.5364 C   0  0  0  0  0  0  0  0  0  0  0  0
   -1.0807    1.0045   28.8660 C   0  0  0  0  0  0  0  0  0  0  0  0
   -0.3430    0.0533   29.6439 O   0  0  0  0  0  0  0  0  0  0  0  0
   -1.1207   -0.8681   30.2519 C   0  0  0  0  0  0  0  0  0  0  0  0
   -2.3377   -0.8693   30.3431 O   0  0  0  0  0  0  0  0  0  0  0  0
   -0.2573   -1.8963   30.8484 C   0  0  0  0  0  0  0  0  0  0  0  0
   -0.8182   -3.0931   31.0771 C   0  0  0  0  0  0  0  0  0  0  0  0
   -0.3082   -4.1363   31.9548 C   0  0  0  0  0  0  0  0  0  0  0  0
    0.1405   -3.6953   33.1523 C   0  0  0  0  0  0  0  0  0  0  0  0
    0.0519   -4.4996   34.3453 C   0  0  0  0  0  0  0  0  0  0  0  0
   -0.5016   -5.7196   34.2653 C   0  0  0  0  0  0  0  0  0  0  0  0
   -1.0008   -6.5278   35.6906 S   0  0  0  0  0  0  0  0  0  0  0  0
    0.5274   -7.0162   36.3570 C   0  0  0  0  0  0  0  0  0  0  0  0
    1.4546   -7.3700   35.5307 N   0  0  0  0  0  0  0  0  0  0  0  0
    2.6508   -7.8273   36.0405 C   0  0  0  0  0  0  0  0  0  0  0  0
    3.5377   -8.1999   35.2809 O   0  0  0  0  0  0  0  0  0  0  0  0
    2.6814   -7.9172   37.4863 C   0  0  0  0  0  0  0  0  0  0  0  0
    3.9476   -8.5952   38.3874 S   0  0  0  0  0  0  0  0  0  0  0  0
    3.0665   -8.4065   39.8537 C   0  0  0  0  0  0  0  0  0  0  0  0
    1.8409   -7.8030   39.6557 C   0  0  0  0  0  0  0  0  0  0  0  0
    1.6397   -7.5300   38.2874 C   0  0  0  0  0  0  0  0  0  0  0  0
    0.5527   -6.9905   37.7219 N   0  0  0  0  0  0  0  0  0  0  0  0
   -0.7565   -6.2629   33.0105 N   0  0  0  0  0  0  0  0  0  0  0  0
   -1.1835   -7.5035   32.6190 C   0  0  0  0  0  0  0  0  0  0  0  0
   -1.2187   -7.5829   31.3097 N   0  0  0  0  0  0  0  0  0  0  0  0
   -0.8273   -6.3574   30.8143 N   0  0  0  0  0  0  0  0  0  0  0  0
   -0.6049   -5.5464   31.8326 C   0  0  0  0  0  0  0  0  0  0  0  0
   -2.0556   -0.5100   27.6520 H   0  0  0  0  0  0  0  0  0  0  0  0
   -1.9568    1.0947   26.8947 H   0  0  0  0  0  0  0  0  0  0  0  0
   -0.5151    0.0632   27.0389 H   0  0  0  0  0  0  0  0  0  0  0  0
   -1.9798    1.3390   29.3891 H   0  0  0  0  0  0  0  0  0  0  0  0
   -0.4379    1.8779   28.7184 H   0  0  0  0  0  0  0  0  0  0  0  0
    0.7255   -1.5980   31.1848 H   0  0  0  0  0  0  0  0  0  0  0  0
   -1.8107   -3.2964   30.6732 H   0  0  0  0  0  0  0  0  0  0  0  0
    0.3032   -2.6377   33.3534 H   0  0  0  0  0  0  0  0  0  0  0  0
    0.2479   -4.0068   35.2937 H   0  0  0  0  0  0  0  0  0  0  0  0
    3.4935   -8.7503   40.7865 H   0  0  0  0  0  0  0  0  0  0  0  0
    1.1400   -7.6088   40.4576 H   0  0  0  0  0  0  0  0  0  0  0  0
   -0.2932   -6.7533   38.2248 H   0  0  0  0  0  0  0  0  0  0  0  0
   -1.4373   -8.2913   33.3089 H   0  0  0  0  0  0  0  0  0  0  0  0
  1  2  1  0
  2  3  1  0
  3  4  1  0
  4  5  2  0
  4  6  1  0
  6  7  2  3
  7  8  1  0
  8  9  2  0
  9 10  1  0
 10 11  2  0
 11 12  1  0
 12 13  1  0
 13 14  2  0
 14 15  1  0
 15 16  2  0
 15 17  1  0
 17 18  1  0
 18 19  1  0
 19 20  2  0
 20 21  1  0
 21 22  1  0
 11 23  1  0
 23 24  1  0
 24 25  2  0
 25 26  1  0
 26 27  2  0
 27  8  1  0
 22 13  1  0
 27 23  1  0
 21 17  2  0
  1 28  1  0
  1 29  1  0
  1 30  1  0
  2 31  1  0
  2 32  1  0
  6 33  1  0
  7 34  1  0
  9 35  1  0
 10 36  1  0
 19 37  1  0
 20 38  1  0
 22 39  1  0
 24 40  1  0
M  END
>  <Energy>  (199) 
-8.2336466259114616

>  <compound_id>  (199) 
2464

>  <target_id>  (199) 
1

>  <reference_id>  (199) 
194

>  <inspiration_ids>  (199) 
[166, 194]

>  <energy_score>  (199) 
-65.22520783588476

>  <distance_score>  (199) 
1.5661307732695091

>  <path>  (199) 
/opt/xchem-fragalysis-2/maxwin/BulkDock/SCRATCH/505736/C2464-P194/C2464-P194.minimised.mol

>  <scratch_subdir>  (199) 
/opt/xchem-fragalysis-2/maxwin/BulkDock/SCRATCH/505736/C2464-P194

>  <fragmenstein_runtime>  (199) 
2.1499862670898438

>  <fragmenstein_outcome>  (199) 
too moved

>  <fragmenstein_mode>  (199) 
expansion

>  <fragmenstein_error>  (199) 


$$$$
C2465-P166
     RDKit          3D

 47 52  0  0  0  0  0  0  0  0999 V2000
    2.7268   -8.2736   35.0045 O   0  0  0  0  0  0  0  0  0  0  0  0
    2.0023   -7.6009   35.7379 C   0  0  0  0  0  0  0  0  0  0  0  0
    1.2304   -6.5983   35.1997 N   0  0  0  0  0  0  0  0  0  0  0  0
    0.2327   -5.9592   35.8977 C   0  0  0  0  0  0  0  0  0  0  0  0
   -0.7237   -4.7826   35.0021 S   0  0  0  0  0  0  0  0  0  0  0  0
   -0.3921   -4.9884   33.3188 C   0  0  0  0  0  0  0  0  0  0  0  0
    0.0848   -4.0349   32.4781 C   0  0  0  0  0  0  0  0  0  0  0  0
    0.0142   -2.6482   32.7280 N   0  0  0  0  0  0  0  0  0  0  0  0
   -1.3873   -1.9450   32.0274 S   0  0  0  0  0  0  0  0  0  0  0  0
   -1.7604   -0.8136   32.8410 O   0  0  0  0  0  0  0  0  0  0  0  0
   -2.3336   -2.9851   31.6817 O   0  0  0  0  0  0  0  0  0  0  0  0
   -0.6892   -1.3324   30.5763 N   0  0  0  0  0  0  0  0  0  0  0  0
   -1.6821   -1.3316   29.4405 C   0  0  0  0  0  0  0  0  0  0  0  0
   -1.0833   -0.7761   28.1516 C   0  0  0  0  0  0  0  0  0  0  0  0
   -0.6395    0.5702   28.3525 O   0  0  0  0  0  0  0  0  0  0  0  0
    0.3763    0.5951   29.3615 C   0  0  0  0  0  0  0  0  0  0  0  0
   -0.1377    0.0684   30.7103 C   0  0  0  0  0  0  0  0  0  0  0  0
    0.4969   -4.4922   30.9736 C   0  0  0  0  0  0  0  0  0  0  0  0
   -0.3899   -5.2849   30.2642 C   0  0  0  0  0  0  0  0  0  0  0  0
   -0.1550   -6.4095   31.2615 C   0  0  0  0  0  0  0  0  0  0  0  0
    1.2936   -5.9310   30.9871 C   0  0  0  0  0  0  0  0  0  0  0  0
   -0.5472   -7.7503   30.8662 N   0  0  0  0  0  0  0  0  0  0  0  0
   -1.1724   -8.2847   31.8381 N   0  0  0  0  0  0  0  0  0  0  0  0
   -1.2240   -7.4235   32.9139 C   0  0  0  0  0  0  0  0  0  0  0  0
   -0.6344   -6.2573   32.6515 C   0  0  0  0  0  0  0  0  0  0  0  0
   -0.0302   -6.1419   37.1565 N   0  0  0  0  0  0  0  0  0  0  0  0
    0.8323   -7.0441   37.8035 C   0  0  0  0  0  0  0  0  0  0  0  0
    0.7984   -7.3252   39.1880 C   0  0  0  0  0  0  0  0  0  0  0  0
    1.7983   -8.2141   39.5375 C   0  0  0  0  0  0  0  0  0  0  0  0
    2.7700   -8.6590   38.1880 S   0  0  0  0  0  0  0  0  0  0  0  0
    1.8143   -7.7303   37.1457 C   0  0  0  0  0  0  0  0  0  0  0  0
    1.3730   -6.4183   34.2261 H   0  0  0  0  0  0  0  0  0  0  0  0
    0.7906   -2.1163   32.3412 H   0  0  0  0  0  0  0  0  0  0  0  0
   -2.0367   -2.3488   29.2583 H   0  0  0  0  0  0  0  0  0  0  0  0
   -2.4953   -0.6709   29.7497 H   0  0  0  0  0  0  0  0  0  0  0  0
   -1.8403   -0.7625   27.3618 H   0  0  0  0  0  0  0  0  0  0  0  0
   -0.2402   -1.3878   27.8143 H   0  0  0  0  0  0  0  0  0  0  0  0
    1.2381    0.0106   29.0172 H   0  0  0  0  0  0  0  0  0  0  0  0
    0.7049    1.6332   29.4740 H   0  0  0  0  0  0  0  0  0  0  0  0
   -0.9331    0.7365   31.0586 H   0  0  0  0  0  0  0  0  0  0  0  0
    0.6798    0.0694   31.4380 H   0  0  0  0  0  0  0  0  0  0  0  0
   -0.6066   -5.3041   29.2003 H   0  0  0  0  0  0  0  0  0  0  0  0
    1.7679   -6.2018   30.0332 H   0  0  0  0  0  0  0  0  0  0  0  0
    2.0096   -6.0565   31.8058 H   0  0  0  0  0  0  0  0  0  0  0  0
   -1.7215   -7.7280   33.8251 H   0  0  0  0  0  0  0  0  0  0  0  0
    0.0908   -6.9042   39.8905 H   0  0  0  0  0  0  0  0  0  0  0  0
    2.0146   -8.6169   40.5171 H   0  0  0  0  0  0  0  0  0  0  0  0
  1  2  2  0
  2  3  1  0
  3  4  1  0
  4  5  1  0
  5  6  1  0
  6  7  2  0
  7  8  1  0
  8  9  1  0
  9 10  2  0
  9 11  2  0
  9 12  1  0
 12 13  1  0
 13 14  1  0
 14 15  1  0
 15 16  1  0
 16 17  1  0
  7 18  1  0
 18 19  2  0
 19 20  1  0
 20 21  1  0
 20 22  1  0
 22 23  2  0
 23 24  1  0
 24 25  2  0
  4 26  2  0
 26 27  1  0
 27 28  1  0
 28 29  2  0
 29 30  1  0
 30 31  1  0
 31  2  1  0
 25  6  1  0
 31 27  2  0
 17 12  1  0
 21 18  1  0
 25 20  1  0
  3 32  1  0
  8 33  1  0
 13 34  1  0
 13 35  1  0
 14 36  1  0
 14 37  1  0
 16 38  1  0
 16 39  1  0
 17 40  1  0
 17 41  1  0
 19 42  1  0
 21 43  1  0
 21 44  1  0
 24 45  1  0
 28 46  1  0
 29 47  1  0
M  END
>  <Energy>  (200) 
-43.166421326645064

>  <compound_id>  (200) 
2465

>  <target_id>  (200) 
1

>  <reference_id>  (200) 
166

>  <inspiration_ids>  (200) 
[166, 195]

>  <energy_score>  (200) 
-211.91128650744488

>  <distance_score>  (200) 
1.0138713804549992

>  <path>  (200) 
/opt/xchem-fragalysis-2/maxwin/BulkDock/SCRATCH/505736/C2465-P166/C2465-P166.minimised.mol

>  <scratch_subdir>  (200) 
/opt/xchem-fragalysis-2/maxwin/BulkDock/SCRATCH/505736/C2465-P166

>  <fragmenstein_runtime>  (200) 
2.764868974685669

>  <fragmenstein_outcome>  (200) 
too moved

>  <fragmenstein_mode>  (200) 
expansion

>  <fragmenstein_error>  (200) 


$$$$
C2465-P195
     RDKit          3D

 47 52  0  0  0  0  0  0  0  0999 V2000
    3.0022   -8.1418   35.0397 O   0  0  0  0  0  0  0  0  0  0  0  0
    2.2424   -7.4868   35.7553 C   0  0  0  0  0  0  0  0  0  0  0  0
    1.4025   -6.5571   35.1897 N   0  0  0  0  0  0  0  0  0  0  0  0
    0.3857   -5.9404   35.8807 C   0  0  0  0  0  0  0  0  0  0  0  0
   -0.5996   -4.8030   34.9759 S   0  0  0  0  0  0  0  0  0  0  0  0
   -0.2638   -5.0154   33.2964 C   0  0  0  0  0  0  0  0  0  0  0  0
    0.2151   -4.0615   32.4576 C   0  0  0  0  0  0  0  0  0  0  0  0
    0.1066   -2.6743   32.7002 N   0  0  0  0  0  0  0  0  0  0  0  0
   -1.3391   -2.0141   32.0486 S   0  0  0  0  0  0  0  0  0  0  0  0
   -1.7220   -0.8934   32.8732 O   0  0  0  0  0  0  0  0  0  0  0  0
   -2.2676   -3.0779   31.7279 O   0  0  0  0  0  0  0  0  0  0  0  0
   -0.7120   -1.3805   30.5753 N   0  0  0  0  0  0  0  0  0  0  0  0
   -1.7558   -1.3839   29.4837 C   0  0  0  0  0  0  0  0  0  0  0  0
   -1.2281   -0.7831   28.1835 C   0  0  0  0  0  0  0  0  0  0  0  0
   -0.7923    0.5643   28.3904 O   0  0  0  0  0  0  0  0  0  0  0  0
    0.2762    0.5790   29.3419 C   0  0  0  0  0  0  0  0  0  0  0  0
   -0.1621    0.0201   30.7029 C   0  0  0  0  0  0  0  0  0  0  0  0
    0.6113   -4.5173   30.9475 C   0  0  0  0  0  0  0  0  0  0  0  0
   -0.3242   -5.2595   30.2496 C   0  0  0  0  0  0  0  0  0  0  0  0
   -0.1041   -6.4171   31.2163 C   0  0  0  0  0  0  0  0  0  0  0  0
    1.3555   -5.9950   30.9227 C   0  0  0  0  0  0  0  0  0  0  0  0
   -0.5371   -7.7420   30.8113 N   0  0  0  0  0  0  0  0  0  0  0  0
   -1.1143   -8.2895   31.8042 N   0  0  0  0  0  0  0  0  0  0  0  0
   -1.1065   -7.4473   32.8969 C   0  0  0  0  0  0  0  0  0  0  0  0
   -0.5295   -6.2777   32.6255 C   0  0  0  0  0  0  0  0  0  0  0  0
    0.1318   -6.1051   37.1435 N   0  0  0  0  0  0  0  0  0  0  0  0
    1.0384   -6.9443   37.8103 C   0  0  0  0  0  0  0  0  0  0  0  0
    1.0049   -7.2036   39.1987 C   0  0  0  0  0  0  0  0  0  0  0  0
    2.0685   -8.0004   39.5788 C   0  0  0  0  0  0  0  0  0  0  0  0
    3.1007   -8.3751   38.2533 S   0  0  0  0  0  0  0  0  0  0  0  0
    2.0715   -7.5732   37.1726 C   0  0  0  0  0  0  0  0  0  0  0  0
    1.5219   -6.4073   34.2076 H   0  0  0  0  0  0  0  0  0  0  0  0
    0.8563   -2.1228   32.2894 H   0  0  0  0  0  0  0  0  0  0  0  0
   -2.0773   -2.4101   29.2909 H   0  0  0  0  0  0  0  0  0  0  0  0
   -2.5883   -0.7736   29.8424 H   0  0  0  0  0  0  0  0  0  0  0  0
   -2.0200   -0.7654   27.4299 H   0  0  0  0  0  0  0  0  0  0  0  0
   -0.3922   -1.3740   27.7960 H   0  0  0  0  0  0  0  0  0  0  0  0
    1.1240    0.0107   28.9404 H   0  0  0  0  0  0  0  0  0  0  0  0
    0.6010    1.6179   29.4589 H   0  0  0  0  0  0  0  0  0  0  0  0
   -0.9407    0.6732   31.1077 H   0  0  0  0  0  0  0  0  0  0  0  0
    0.6929    0.0144   31.3861 H   0  0  0  0  0  0  0  0  0  0  0  0
   -0.6541   -5.1783   29.2220 H   0  0  0  0  0  0  0  0  0  0  0  0
    1.7953   -6.2792   29.9570 H   0  0  0  0  0  0  0  0  0  0  0  0
    2.0819   -6.1710   31.7229 H   0  0  0  0  0  0  0  0  0  0  0  0
   -1.5594   -7.7648   33.8268 H   0  0  0  0  0  0  0  0  0  0  0  0
    0.2577   -6.8242   39.8836 H   0  0  0  0  0  0  0  0  0  0  0  0
    2.3051   -8.3601   40.5705 H   0  0  0  0  0  0  0  0  0  0  0  0
  1  2  2  0
  2  3  1  0
  3  4  1  0
  4  5  1  0
  5  6  1  0
  6  7  2  0
  7  8  1  0
  8  9  1  0
  9 10  2  0
  9 11  2  0
  9 12  1  0
 12 13  1  0
 13 14  1  0
 14 15  1  0
 15 16  1  0
 16 17  1  0
  7 18  1  0
 18 19  2  0
 19 20  1  0
 20 21  1  0
 20 22  1  0
 22 23  2  0
 23 24  1  0
 24 25  2  0
  4 26  2  0
 26 27  1  0
 27 28  1  0
 28 29  2  0
 29 30  1  0
 30 31  1  0
 31  2  1  0
 25  6  1  0
 31 27  2  0
 17 12  1  0
 21 18  1  0
 25 20  1  0
  3 32  1  0
  8 33  1  0
 13 34  1  0
 13 35  1  0
 14 36  1  0
 14 37  1  0
 16 38  1  0
 16 39  1  0
 17 40  1  0
 17 41  1  0
 19 42  1  0
 21 43  1  0
 21 44  1  0
 24 45  1  0
 28 46  1  0
 29 47  1  0
M  END
>  <Energy>  (201) 
-42.836209693366456

>  <compound_id>  (201) 
2465

>  <target_id>  (201) 
1

>  <reference_id>  (201) 
195

>  <inspiration_ids>  (201) 
[166, 195]

>  <energy_score>  (201) 
-211.58107487416476

>  <distance_score>  (201) 
1.0259126903342752

>  <path>  (201) 
/opt/xchem-fragalysis-2/maxwin/BulkDock/SCRATCH/505736/C2465-P195/C2465-P195.minimised.mol

>  <scratch_subdir>  (201) 
/opt/xchem-fragalysis-2/maxwin/BulkDock/SCRATCH/505736/C2465-P195

>  <fragmenstein_runtime>  (201) 
2.659776449203491

>  <fragmenstein_outcome>  (201) 
too moved

>  <fragmenstein_mode>  (201) 
expansion

>  <fragmenstein_error>  (201) 


$$$$
C1640-P166
     RDKit          3D

 55 60  0  0  0  0  0  0  0  0999 V2000
   -2.7209    0.1247   33.2343 C   0  0  0  0  0  0  0  0  0  0  0  0
   -2.8912   -1.3482   32.9319 C   0  0  0  0  0  0  0  0  0  0  0  0
   -1.3533   -2.1418   32.5247 S   0  0  0  0  0  0  0  0  0  0  0  0
   -0.3596   -1.7251   33.4850 O   0  0  0  0  0  0  0  0  0  0  0  0
   -1.6537   -3.5897   32.1537 N   0  0  0  0  0  0  0  0  0  0  0  0
   -0.6101   -4.6366   32.2400 C   0  0  0  0  0  0  0  0  0  0  0  0
    0.0901   -4.9619   31.0017 C   0  0  0  0  0  0  0  0  0  0  0  0
    0.1365   -6.2210   30.5494 C   0  0  0  0  0  0  0  0  0  0  0  0
   -0.5324   -7.2137   31.2936 C   0  0  0  0  0  0  0  0  0  0  0  0
   -0.9955   -8.3949   30.9700 N   0  0  0  0  0  0  0  0  0  0  0  0
   -1.5707   -8.9230   32.0918 N   0  0  0  0  0  0  0  0  0  0  0  0
   -1.4164   -8.0694   33.0804 C   0  0  0  0  0  0  0  0  0  0  0  0
   -0.8383   -6.9194   32.6169 N   0  0  0  0  0  0  0  0  0  0  0  0
   -0.7404   -5.6271   33.1650 C   0  0  0  0  0  0  0  0  0  0  0  0
   -1.0603   -5.3518   34.8575 S   0  0  0  0  0  0  0  0  0  0  0  0
    0.1171   -6.3672   35.7007 C   0  0  0  0  0  0  0  0  0  0  0  0
    1.0272   -6.9735   35.0069 N   0  0  0  0  0  0  0  0  0  0  0  0
    1.9366   -7.7884   35.6621 C   0  0  0  0  0  0  0  0  0  0  0  0
    2.7472   -8.4510   35.0226 O   0  0  0  0  0  0  0  0  0  0  0  0
    1.8203   -7.7859   37.1003 C   0  0  0  0  0  0  0  0  0  0  0  0
    2.8803   -8.5872   38.1565 S   0  0  0  0  0  0  0  0  0  0  0  0
    1.9552   -8.1027   39.5223 C   0  0  0  0  0  0  0  0  0  0  0  0
    0.8827   -7.3050   39.1695 C   0  0  0  0  0  0  0  0  0  0  0  0
    0.8261   -7.1240   37.7677 C   0  0  0  0  0  0  0  0  0  0  0  0
   -0.0673   -6.4061   37.0625 N   0  0  0  0  0  0  0  0  0  0  0  0
   -0.7651   -1.4560   31.1214 N   0  0  0  0  0  0  0  0  0  0  0  0
   -1.2127   -1.7276   29.7745 C   0  0  0  0  0  0  0  0  0  0  0  0
   -1.1383   -0.4901   28.9105 C   0  0  0  0  0  0  0  0  0  0  0  0
   -1.7495   -0.5205   27.6422 C   0  0  0  0  0  0  0  0  0  0  0  0
   -1.7772    0.6129   26.8267 C   0  0  0  0  0  0  0  0  0  0  0  0
   -1.1570    1.7498   27.2788 C   0  0  0  0  0  0  0  0  0  0  0  0
   -0.5313    1.7831   28.4984 C   0  0  0  0  0  0  0  0  0  0  0  0
   -0.4977    0.6893   29.3299 C   0  0  0  0  0  0  0  0  0  0  0  0
    0.0155    3.0010   28.7618 O   0  0  0  0  0  0  0  0  0  0  0  0
   -0.4647    3.7588   27.6271 C   0  0  0  0  0  0  0  0  0  0  0  0
   -1.0741    2.9309   26.6138 O   0  0  0  0  0  0  0  0  0  0  0  0
   -2.2777    0.6508   32.3851 H   0  0  0  0  0  0  0  0  0  0  0  0
   -2.0673    0.2793   34.0986 H   0  0  0  0  0  0  0  0  0  0  0  0
   -3.6897    0.5783   33.4624 H   0  0  0  0  0  0  0  0  0  0  0  0
   -3.2922   -1.8571   33.8128 H   0  0  0  0  0  0  0  0  0  0  0  0
   -3.5801   -1.5015   32.0969 H   0  0  0  0  0  0  0  0  0  0  0  0
    0.5751   -4.1562   30.4648 H   0  0  0  0  0  0  0  0  0  0  0  0
    0.6579   -6.4816   29.6434 H   0  0  0  0  0  0  0  0  0  0  0  0
   -1.7547   -8.2208   34.0951 H   0  0  0  0  0  0  0  0  0  0  0  0
    2.2494   -8.4204   40.5133 H   0  0  0  0  0  0  0  0  0  0  0  0
    0.1898   -6.8904   39.8908 H   0  0  0  0  0  0  0  0  0  0  0  0
   -0.8194   -5.8626   37.4700 H   0  0  0  0  0  0  0  0  0  0  0  0
    0.2448   -1.4582   31.1760 H   0  0  0  0  0  0  0  0  0  0  0  0
   -0.6000   -2.5127   29.3202 H   0  0  0  0  0  0  0  0  0  0  0  0
   -2.2430   -2.0855   29.7950 H   0  0  0  0  0  0  0  0  0  0  0  0
   -2.2335   -1.4307   27.2880 H   0  0  0  0  0  0  0  0  0  0  0  0
   -2.2855    0.5946   25.8737 H   0  0  0  0  0  0  0  0  0  0  0  0
    0.0003    0.7773   30.2882 H   0  0  0  0  0  0  0  0  0  0  0  0
    0.3845    4.2868   27.1798 H   0  0  0  0  0  0  0  0  0  0  0  0
   -1.1988    4.4969   27.9687 H   0  0  0  0  0  0  0  0  0  0  0  0
  1  2  1  0
  2  3  1  0
  3  4  2  0
  3  5  2  0
  5  6  1  0
  6  7  1  0
  7  8  2  0
  8  9  1  0
  9 10  2  0
 10 11  1  0
 11 12  2  0
 12 13  1  0
 13 14  1  0
 14 15  1  0
 15 16  1  0
 16 17  2  0
 17 18  1  0
 18 19  2  0
 18 20  1  0
 20 21  1  0
 21 22  1  0
 22 23  2  0
 23 24  1  0
 24 25  1  0
  3 26  1  0
 26 27  1  0
 27 28  1  0
 28 29  2  0
 29 30  1  0
 30 31  2  0
 31 32  1  0
 32 33  2  0
 32 34  1  0
 34 35  1  0
 35 36  1  0
 14  6  2  0
 25 16  1  0
 33 28  1  0
 13  9  1  0
 24 20  2  0
 36 31  1  0
  1 37  1  0
  1 38  1  0
  1 39  1  0
  2 40  1  0
  2 41  1  0
  7 42  1  0
  8 43  1  0
 12 44  1  0
 22 45  1  0
 23 46  1  0
 25 47  1  0
 26 48  1  0
 27 49  1  0
 27 50  1  0
 29 51  1  0
 30 52  1  0
 33 53  1  0
 35 54  1  0
 35 55  1  0
M  END
>  <Energy>  (202) 
-90.439391345455661

>  <compound_id>  (202) 
1640

>  <target_id>  (202) 
1

>  <reference_id>  (202) 
166

>  <inspiration_ids>  (202) 
[166, 196]

>  <energy_score>  (202) 
-71.36546571375966

>  <distance_score>  (202) 
0.910646198547972

>  <path>  (202) 
/opt/xchem-fragalysis-2/maxwin/BulkDock/SCRATCH/505736/C1640-P166/C1640-P166.minimised.mol

>  <scratch_subdir>  (202) 
/opt/xchem-fragalysis-2/maxwin/BulkDock/SCRATCH/505736/C1640-P166

>  <fragmenstein_runtime>  (202) 
4.339271306991577

>  <fragmenstein_outcome>  (202) 
acceptable

>  <fragmenstein_mode>  (202) 
expansion

>  <fragmenstein_error>  (202) 


$$$$
C1640-P196
     RDKit          3D

 55 60  0  0  0  0  0  0  0  0999 V2000
   -2.9214   -1.0392   34.0904 C   0  0  0  0  0  0  0  0  0  0  0  0
   -2.9917   -1.2532   32.5918 C   0  0  0  0  0  0  0  0  0  0  0  0
   -1.5251   -2.0375   31.9587 S   0  0  0  0  0  0  0  0  0  0  0  0
   -0.3977   -1.1943   32.2627 O   0  0  0  0  0  0  0  0  0  0  0  0
   -1.6255   -3.5287   32.2734 N   0  0  0  0  0  0  0  0  0  0  0  0
   -0.4419   -4.4340   32.3187 C   0  0  0  0  0  0  0  0  0  0  0  0
    0.2633   -4.6936   31.0615 C   0  0  0  0  0  0  0  0  0  0  0  0
    0.2942   -5.9213   30.5240 C   0  0  0  0  0  0  0  0  0  0  0  0
   -0.3614   -6.9593   31.2202 C   0  0  0  0  0  0  0  0  0  0  0  0
   -0.8231   -8.1269   30.8434 N   0  0  0  0  0  0  0  0  0  0  0  0
   -1.3795   -8.7135   31.9461 N   0  0  0  0  0  0  0  0  0  0  0  0
   -1.2127   -7.9080   32.9734 C   0  0  0  0  0  0  0  0  0  0  0  0
   -0.6396   -6.7380   32.5643 N   0  0  0  0  0  0  0  0  0  0  0  0
   -0.5251   -5.4817   33.1852 C   0  0  0  0  0  0  0  0  0  0  0  0
   -0.8373   -5.2877   34.8885 S   0  0  0  0  0  0  0  0  0  0  0  0
    0.3433   -6.3073   35.6952 C   0  0  0  0  0  0  0  0  0  0  0  0
    1.3069   -6.8228   35.0020 N   0  0  0  0  0  0  0  0  0  0  0  0
    2.2421   -7.6111   35.6511 C   0  0  0  0  0  0  0  0  0  0  0  0
    3.0649   -8.2581   35.0098 O   0  0  0  0  0  0  0  0  0  0  0  0
    2.1227   -7.6163   37.0941 C   0  0  0  0  0  0  0  0  0  0  0  0
    3.2493   -8.3017   38.1650 S   0  0  0  0  0  0  0  0  0  0  0  0
    2.2452   -7.9534   39.5172 C   0  0  0  0  0  0  0  0  0  0  0  0
    1.1011   -7.2690   39.1538 C   0  0  0  0  0  0  0  0  0  0  0  0
    1.0570   -7.0678   37.7549 C   0  0  0  0  0  0  0  0  0  0  0  0
    0.1127   -6.4285   37.0441 N   0  0  0  0  0  0  0  0  0  0  0  0
   -1.6451   -2.0575   30.2825 N   0  0  0  0  0  0  0  0  0  0  0  0
   -1.6975   -0.9050   29.4082 C   0  0  0  0  0  0  0  0  0  0  0  0
   -0.4552   -0.0682   29.3162 C   0  0  0  0  0  0  0  0  0  0  0  0
   -0.5722    1.3165   29.0625 C   0  0  0  0  0  0  0  0  0  0  0  0
    0.5382    2.1662   29.1101 C   0  0  0  0  0  0  0  0  0  0  0  0
    1.7641    1.5969   29.3423 C   0  0  0  0  0  0  0  0  0  0  0  0
    1.8949    0.2430   29.5179 C   0  0  0  0  0  0  0  0  0  0  0  0
    0.8176   -0.6111   29.4921 C   0  0  0  0  0  0  0  0  0  0  0  0
    3.1905   -0.1308   29.7116 O   0  0  0  0  0  0  0  0  0  0  0  0
    3.8549    1.1461   29.6059 C   0  0  0  0  0  0  0  0  0  0  0  0
    2.9517    2.2521   29.4153 O   0  0  0  0  0  0  0  0  0  0  0  0
   -2.0880   -0.3802   34.3541 H   0  0  0  0  0  0  0  0  0  0  0  0
   -2.7782   -1.9833   34.6234 H   0  0  0  0  0  0  0  0  0  0  0  0
   -3.8457   -0.5782   34.4515 H   0  0  0  0  0  0  0  0  0  0  0  0
   -3.8489   -1.8804   32.3301 H   0  0  0  0  0  0  0  0  0  0  0  0
   -3.0903   -0.2901   32.0864 H   0  0  0  0  0  0  0  0  0  0  0  0
    0.7813   -3.8647   30.5942 H   0  0  0  0  0  0  0  0  0  0  0  0
    0.8102   -6.1256   29.5977 H   0  0  0  0  0  0  0  0  0  0  0  0
   -1.5407   -8.0993   33.9841 H   0  0  0  0  0  0  0  0  0  0  0  0
    2.5524   -8.2533   40.5098 H   0  0  0  0  0  0  0  0  0  0  0  0
    0.3525   -6.9439   39.8649 H   0  0  0  0  0  0  0  0  0  0  0  0
   -0.6829   -5.9450   37.4440 H   0  0  0  0  0  0  0  0  0  0  0  0
   -1.0256   -2.7551   29.9033 H   0  0  0  0  0  0  0  0  0  0  0  0
   -1.9656   -1.2326   28.3973 H   0  0  0  0  0  0  0  0  0  0  0  0
   -2.5039   -0.2611   29.7673 H   0  0  0  0  0  0  0  0  0  0  0  0
   -1.5460    1.7468   28.8372 H   0  0  0  0  0  0  0  0  0  0  0  0
    0.4405    3.2340   28.9546 H   0  0  0  0  0  0  0  0  0  0  0  0
    0.9820   -1.6675   29.6512 H   0  0  0  0  0  0  0  0  0  0  0  0
    4.5513    1.1100   28.7597 H   0  0  0  0  0  0  0  0  0  0  0  0
    4.4284    1.3171   30.5241 H   0  0  0  0  0  0  0  0  0  0  0  0
  1  2  1  0
  2  3  1  0
  3  4  2  0
  3  5  2  0
  5  6  1  0
  6  7  1  0
  7  8  2  0
  8  9  1  0
  9 10  2  0
 10 11  1  0
 11 12  2  0
 12 13  1  0
 13 14  1  0
 14 15  1  0
 15 16  1  0
 16 17  2  0
 17 18  1  0
 18 19  2  0
 18 20  1  0
 20 21  1  0
 21 22  1  0
 22 23  2  0
 23 24  1  0
 24 25  1  0
  3 26  1  0
 26 27  1  0
 27 28  1  0
 28 29  2  0
 29 30  1  0
 30 31  2  0
 31 32  1  0
 32 33  2  0
 32 34  1  0
 34 35  1  0
 35 36  1  0
 14  6  2  0
 25 16  1  0
 33 28  1  0
 13  9  1  0
 24 20  2  0
 36 31  1  0
  1 37  1  0
  1 38  1  0
  1 39  1  0
  2 40  1  0
  2 41  1  0
  7 42  1  0
  8 43  1  0
 12 44  1  0
 22 45  1  0
 23 46  1  0
 25 47  1  0
 26 48  1  0
 27 49  1  0
 27 50  1  0
 29 51  1  0
 30 52  1  0
 33 53  1  0
 35 54  1  0
 35 55  1  0
M  END
>  <Energy>  (203) 
-82.824737042161573

>  <compound_id>  (203) 
1640

>  <target_id>  (203) 
1

>  <reference_id>  (203) 
196

>  <inspiration_ids>  (203) 
[166, 196]

>  <energy_score>  (203) 
-63.75081141046445

>  <distance_score>  (203) 
1.0411070212493632

>  <path>  (203) 
/opt/xchem-fragalysis-2/maxwin/BulkDock/SCRATCH/505736/C1640-P196/C1640-P196.minimised.mol

>  <scratch_subdir>  (203) 
/opt/xchem-fragalysis-2/maxwin/BulkDock/SCRATCH/505736/C1640-P196

>  <fragmenstein_runtime>  (203) 
4.458497762680054

>  <fragmenstein_outcome>  (203) 
too moved

>  <fragmenstein_mode>  (203) 
expansion

>  <fragmenstein_error>  (203) 


$$$$
C2433-P166
     RDKit          3D

 44 48  0  0  0  0  0  0  0  0999 V2000
    1.5613   -1.6391   30.8260 C   0  0  0  0  0  0  0  0  0  0  0  0
    0.1360   -1.6729   30.3251 C   0  0  0  0  0  0  0  0  0  0  0  0
   -0.3502   -0.2528   30.0805 C   0  0  0  0  0  0  0  0  0  0  0  0
   -1.8257   -0.4249   30.2249 C   0  0  0  0  0  0  0  0  0  0  0  0
   -1.9616   -1.3165   31.3430 O   0  0  0  0  0  0  0  0  0  0  0  0
   -0.9193   -2.2989   31.2582 C   0  0  0  0  0  0  0  0  0  0  0  0
   -0.3701   -2.7514   32.6393 C   0  0  0  0  0  0  0  0  0  0  0  0
   -0.9390   -4.2883   33.4725 S   0  0  0  0  0  0  0  0  0  0  0  0
    0.2165   -5.0293   34.7888 C   0  0  0  0  0  0  0  0  0  0  0  0
   -0.2729   -5.1226   35.9997 N   0  0  0  0  0  0  0  0  0  0  0  0
    0.4373   -5.9849   36.8818 C   0  0  0  0  0  0  0  0  0  0  0  0
    0.1264   -6.2170   38.2479 C   0  0  0  0  0  0  0  0  0  0  0  0
    0.9473   -7.1876   38.8030 C   0  0  0  0  0  0  0  0  0  0  0  0
    2.0774   -7.8039   37.6624 S   0  0  0  0  0  0  0  0  0  0  0  0
    1.4602   -6.7828   36.4586 C   0  0  0  0  0  0  0  0  0  0  0  0
    1.9151   -6.7430   35.1130 C   0  0  0  0  0  0  0  0  0  0  0  0
    2.6245   -7.5854   34.5679 O   0  0  0  0  0  0  0  0  0  0  0  0
    1.3827   -5.6803   34.3964 N   0  0  0  0  0  0  0  0  0  0  0  0
   -0.5162   -5.4960   32.2576 C   0  0  0  0  0  0  0  0  0  0  0  0
    0.3376   -5.2262   31.2556 C   0  0  0  0  0  0  0  0  0  0  0  0
    0.6419   -6.2340   30.2710 C   0  0  0  0  0  0  0  0  0  0  0  0
    0.0689   -7.4469   30.3256 C   0  0  0  0  0  0  0  0  0  0  0  0
   -0.8217   -7.7471   31.3740 C   0  0  0  0  0  0  0  0  0  0  0  0
   -1.5288   -8.8141   31.6375 N   0  0  0  0  0  0  0  0  0  0  0  0
   -2.0968   -8.6234   32.8689 N   0  0  0  0  0  0  0  0  0  0  0  0
   -1.7418   -7.4415   33.3095 C   0  0  0  0  0  0  0  0  0  0  0  0
   -1.0279   -6.7916   32.3474 N   0  0  0  0  0  0  0  0  0  0  0  0
    1.6652   -1.0514   31.7443 H   0  0  0  0  0  0  0  0  0  0  0  0
    2.2069   -1.1642   30.0773 H   0  0  0  0  0  0  0  0  0  0  0  0
    1.9807   -2.6287   31.0092 H   0  0  0  0  0  0  0  0  0  0  0  0
    0.1174   -2.2235   29.3746 H   0  0  0  0  0  0  0  0  0  0  0  0
    0.0211    0.4288   30.8554 H   0  0  0  0  0  0  0  0  0  0  0  0
   -0.0582    0.1426   29.1035 H   0  0  0  0  0  0  0  0  0  0  0  0
   -2.3539    0.5050   30.4269 H   0  0  0  0  0  0  0  0  0  0  0  0
   -2.2414   -0.8975   29.3316 H   0  0  0  0  0  0  0  0  0  0  0  0
   -1.3732   -3.1658   30.7675 H   0  0  0  0  0  0  0  0  0  0  0  0
    0.2829   -2.0685   33.2020 H   0  0  0  0  0  0  0  0  0  0  0  0
   -0.6684   -5.7221   38.7924 H   0  0  0  0  0  0  0  0  0  0  0  0
    0.9273   -7.5769   39.8118 H   0  0  0  0  0  0  0  0  0  0  0  0
    1.6636   -5.6648   33.4317 H   0  0  0  0  0  0  0  0  0  0  0  0
    0.8476   -4.2914   31.1179 H   0  0  0  0  0  0  0  0  0  0  0  0
    1.3546   -5.9831   29.4907 H   0  0  0  0  0  0  0  0  0  0  0  0
    0.3045   -8.2474   29.6333 H   0  0  0  0  0  0  0  0  0  0  0  0
   -1.9908   -7.0243   34.2739 H   0  0  0  0  0  0  0  0  0  0  0  0
  1  2  1  0
  2  3  1  0
  3  4  1  0
  4  5  1  0
  5  6  1  0
  6  7  1  0
  7  8  2  3
  8  9  1  0
  9 10  2  0
 10 11  1  0
 11 12  1  0
 12 13  2  0
 13 14  1  0
 14 15  1  0
 15 16  1  0
 16 17  2  0
 16 18  1  0
  8 19  1  0
 19 20  2  0
 20 21  1  0
 21 22  2  0
 22 23  1  0
 23 24  2  0
 24 25  1  0
 25 26  2  0
 26 27  1  0
  6  2  1  0
 18  9  1  0
 27 19  1  0
 15 11  2  0
 27 23  1  0
  1 28  1  0
  1 29  1  0
  1 30  1  0
  2 31  1  0
  3 32  1  0
  3 33  1  0
  4 34  1  0
  4 35  1  0
  6 36  1  0
  7 37  1  0
 12 38  1  0
 13 39  1  0
 18 40  1  0
 20 41  1  0
 21 42  1  0
 22 43  1  0
 26 44  1  0
M  END
>  <Energy>  (204) 
26.08261765976555

>  <compound_id>  (204) 
2433

>  <target_id>  (204) 
1

>  <reference_id>  (204) 
166

>  <inspiration_ids>  (204) 
[166, 198]

>  <energy_score>  (204) 
-52.19959742238393

>  <distance_score>  (204) 
2.1038759538302263

>  <path>  (204) 
/opt/xchem-fragalysis-2/maxwin/BulkDock/SCRATCH/505736/C2433-P166/C2433-P166.minimised.mol

>  <scratch_subdir>  (204) 
/opt/xchem-fragalysis-2/maxwin/BulkDock/SCRATCH/505736/C2433-P166

>  <fragmenstein_runtime>  (204) 
2.127581834793091

>  <fragmenstein_outcome>  (204) 
too moved

>  <fragmenstein_mode>  (204) 
expansion

>  <fragmenstein_error>  (204) 


$$$$
C2433-P198
     RDKit          3D

 44 48  0  0  0  0  0  0  0  0999 V2000
   -0.6482   -3.0608   29.4059 C   0  0  0  0  0  0  0  0  0  0  0  0
   -1.1802   -1.8665   30.1292 C   0  0  0  0  0  0  0  0  0  0  0  0
   -0.4265   -0.6030   29.7845 C   0  0  0  0  0  0  0  0  0  0  0  0
   -0.9641    0.3131   30.8384 C   0  0  0  0  0  0  0  0  0  0  0  0
   -1.0844   -0.4925   32.0212 O   0  0  0  0  0  0  0  0  0  0  0  0
   -1.1990   -1.8859   31.6558 C   0  0  0  0  0  0  0  0  0  0  0  0
   -0.1139   -2.6477   32.4558 C   0  0  0  0  0  0  0  0  0  0  0  0
   -0.6423   -4.1189   33.4501 S   0  0  0  0  0  0  0  0  0  0  0  0
    0.5065   -4.8884   34.7449 C   0  0  0  0  0  0  0  0  0  0  0  0
   -0.0111   -5.0189   35.9413 N   0  0  0  0  0  0  0  0  0  0  0  0
    0.6846   -5.8894   36.8225 C   0  0  0  0  0  0  0  0  0  0  0  0
    0.3458   -6.1427   38.1784 C   0  0  0  0  0  0  0  0  0  0  0  0
    1.1697   -7.1066   38.7393 C   0  0  0  0  0  0  0  0  0  0  0  0
    2.3501   -7.6683   37.6224 S   0  0  0  0  0  0  0  0  0  0  0  0
    1.7186   -6.6758   36.4042 C   0  0  0  0  0  0  0  0  0  0  0  0
    2.1801   -6.6291   35.0583 C   0  0  0  0  0  0  0  0  0  0  0  0
    2.8513   -7.4913   34.4911 O   0  0  0  0  0  0  0  0  0  0  0  0
    1.6811   -5.5335   34.3645 N   0  0  0  0  0  0  0  0  0  0  0  0
   -0.2086   -5.3400   32.2433 C   0  0  0  0  0  0  0  0  0  0  0  0
    0.7243   -5.0970   31.3043 C   0  0  0  0  0  0  0  0  0  0  0  0
    0.9774   -6.0806   30.2776 C   0  0  0  0  0  0  0  0  0  0  0  0
    0.3223   -7.2525   30.2673 C   0  0  0  0  0  0  0  0  0  0  0  0
   -0.6096   -7.5401   31.2795 C   0  0  0  0  0  0  0  0  0  0  0  0
   -1.3793   -8.5741   31.4915 N   0  0  0  0  0  0  0  0  0  0  0  0
   -1.9454   -8.3941   32.7237 N   0  0  0  0  0  0  0  0  0  0  0  0
   -1.5264   -7.2531   33.2150 C   0  0  0  0  0  0  0  0  0  0  0  0
   -0.7854   -6.6056   32.2778 N   0  0  0  0  0  0  0  0  0  0  0  0
    0.4361   -3.1449   29.5005 H   0  0  0  0  0  0  0  0  0  0  0  0
   -0.8501   -2.9673   28.3343 H   0  0  0  0  0  0  0  0  0  0  0  0
   -1.1355   -3.9732   29.7428 H   0  0  0  0  0  0  0  0  0  0  0  0
   -2.2187   -1.7264   29.7981 H   0  0  0  0  0  0  0  0  0  0  0  0
    0.6529   -0.7449   29.9144 H   0  0  0  0  0  0  0  0  0  0  0  0
   -0.6134   -0.2410   28.7695 H   0  0  0  0  0  0  0  0  0  0  0  0
   -0.3156    1.1697   31.0373 H   0  0  0  0  0  0  0  0  0  0  0  0
   -1.9655    0.6604   30.5705 H   0  0  0  0  0  0  0  0  0  0  0  0
   -2.1765   -2.2404   32.0030 H   0  0  0  0  0  0  0  0  0  0  0  0
    0.9266   -2.2919   32.4397 H   0  0  0  0  0  0  0  0  0  0  0  0
   -0.4654   -5.6629   38.7122 H   0  0  0  0  0  0  0  0  0  0  0  0
    1.1354   -7.5111   39.7426 H   0  0  0  0  0  0  0  0  0  0  0  0
    1.9818   -5.4971   33.4070 H   0  0  0  0  0  0  0  0  0  0  0  0
    1.3084   -4.1875   31.2316 H   0  0  0  0  0  0  0  0  0  0  0  0
    1.7140   -5.8436   29.5149 H   0  0  0  0  0  0  0  0  0  0  0  0
    0.5324   -8.0393   29.5549 H   0  0  0  0  0  0  0  0  0  0  0  0
   -1.7516   -6.8593   34.1956 H   0  0  0  0  0  0  0  0  0  0  0  0
  1  2  1  0
  2  3  1  0
  3  4  1  0
  4  5  1  0
  5  6  1  0
  6  7  1  0
  7  8  2  3
  8  9  1  0
  9 10  2  0
 10 11  1  0
 11 12  1  0
 12 13  2  0
 13 14  1  0
 14 15  1  0
 15 16  1  0
 16 17  2  0
 16 18  1  0
  8 19  1  0
 19 20  2  0
 20 21  1  0
 21 22  2  0
 22 23  1  0
 23 24  2  0
 24 25  1  0
 25 26  2  0
 26 27  1  0
  6  2  1  0
 18  9  1  0
 27 19  1  0
 15 11  2  0
 27 23  1  0
  1 28  1  0
  1 29  1  0
  1 30  1  0
  2 31  1  0
  3 32  1  0
  3 33  1  0
  4 34  1  0
  4 35  1  0
  6 36  1  0
  7 37  1  0
 12 38  1  0
 13 39  1  0
 18 40  1  0
 20 41  1  0
 21 42  1  0
 22 43  1  0
 26 44  1  0
M  END
>  <Energy>  (205) 
30.112484612676489

>  <compound_id>  (205) 
2433

>  <target_id>  (205) 
1

>  <reference_id>  (205) 
198

>  <inspiration_ids>  (205) 
[166, 198]

>  <energy_score>  (205) 
-48.169730469476804

>  <distance_score>  (205) 
2.159553782421047

>  <path>  (205) 
/opt/xchem-fragalysis-2/maxwin/BulkDock/SCRATCH/505736/C2433-P198/C2433-P198.minimised.mol

>  <scratch_subdir>  (205) 
/opt/xchem-fragalysis-2/maxwin/BulkDock/SCRATCH/505736/C2433-P198

>  <fragmenstein_runtime>  (205) 
2.6417737007141113

>  <fragmenstein_outcome>  (205) 
too moved

>  <fragmenstein_mode>  (205) 
expansion

>  <fragmenstein_error>  (205) 


$$$$
C2466-P166
     RDKit          3D

 58 62  0  0  0  0  0  0  0  0999 V2000
    4.9070   -2.8683   39.6712 C   0  0  0  0  0  0  0  0  0  0  0  0
    5.3514   -4.2293   39.5685 O   0  0  0  0  0  0  0  0  0  0  0  0
    5.2236   -4.9458   38.4226 C   0  0  0  0  0  0  0  0  0  0  0  0
    5.9415   -5.9209   38.2148 O   0  0  0  0  0  0  0  0  0  0  0  0
    4.1611   -4.5088   37.4200 C   0  0  0  0  0  0  0  0  0  0  0  0
    2.8715   -4.3325   38.0344 N   0  0  0  0  0  0  0  0  0  0  0  0
    1.6498   -3.7779   37.5265 C   0  0  0  0  0  0  0  0  0  0  0  0
    1.3424   -3.3702   36.3890 N   0  0  0  0  0  0  0  0  0  0  0  0
    2.2419   -3.4210   35.2439 C   0  0  0  0  0  0  0  0  0  0  0  0
    1.4933   -2.8938   34.0046 C   0  0  0  0  0  0  0  0  0  0  0  0
    0.2194   -3.5995   33.8424 N   0  0  0  0  0  0  0  0  0  0  0  0
    0.0320   -4.7254   33.0593 C   0  0  0  0  0  0  0  0  0  0  0  0
    0.4370   -4.6305   31.6548 C   0  0  0  0  0  0  0  0  0  0  0  0
    0.2131   -5.6140   30.7683 C   0  0  0  0  0  0  0  0  0  0  0  0
   -0.4507   -6.7885   31.1915 C   0  0  0  0  0  0  0  0  0  0  0  0
   -0.8599   -7.8510   30.5355 N   0  0  0  0  0  0  0  0  0  0  0  0
   -1.4934   -8.6713   31.4336 N   0  0  0  0  0  0  0  0  0  0  0  0
   -1.4496   -8.0923   32.6134 C   0  0  0  0  0  0  0  0  0  0  0  0
   -0.8160   -6.8805   32.5281 N   0  0  0  0  0  0  0  0  0  0  0  0
   -0.5824   -5.8670   33.4695 C   0  0  0  0  0  0  0  0  0  0  0  0
   -1.1367   -6.0589   35.1130 S   0  0  0  0  0  0  0  0  0  0  0  0
    0.2049   -6.8712   35.9021 C   0  0  0  0  0  0  0  0  0  0  0  0
    1.1445   -7.3761   35.1701 N   0  0  0  0  0  0  0  0  0  0  0  0
    2.1857   -8.0360   35.7946 C   0  0  0  0  0  0  0  0  0  0  0  0
    3.0472   -8.5942   35.1249 O   0  0  0  0  0  0  0  0  0  0  0  0
    2.1445   -8.0029   37.2365 C   0  0  0  0  0  0  0  0  0  0  0  0
    3.3427   -8.6412   38.2523 S   0  0  0  0  0  0  0  0  0  0  0  0
    2.4560   -8.1899   39.6554 C   0  0  0  0  0  0  0  0  0  0  0  0
    1.2700   -7.5546   39.3418 C   0  0  0  0  0  0  0  0  0  0  0  0
    1.1125   -7.4485   37.9420 C   0  0  0  0  0  0  0  0  0  0  0  0
    0.1004   -6.8769   37.2702 N   0  0  0  0  0  0  0  0  0  0  0  0
    0.6130   -3.7066   38.5642 C   0  0  0  0  0  0  0  0  0  0  0  0
   -0.7190   -3.2320   38.4467 C   0  0  0  0  0  0  0  0  0  0  0  0
   -1.2586   -3.3998   39.6965 C   0  0  0  0  0  0  0  0  0  0  0  0
   -2.5729   -3.1135   40.2980 C   0  0  0  0  0  0  0  0  0  0  0  0
   -0.3226   -3.9434   40.5176 O   0  0  0  0  0  0  0  0  0  0  0  0
    0.8520   -4.1399   39.8158 N   0  0  0  0  0  0  0  0  0  0  0  0
    4.9779   -2.3387   38.7180 H   0  0  0  0  0  0  0  0  0  0  0  0
    3.8882   -2.8414   40.0649 H   0  0  0  0  0  0  0  0  0  0  0  0
    5.5616   -2.3613   40.3859 H   0  0  0  0  0  0  0  0  0  0  0  0
    4.5134   -3.5955   36.9340 H   0  0  0  0  0  0  0  0  0  0  0  0
    4.0894   -5.2918   36.6578 H   0  0  0  0  0  0  0  0  0  0  0  0
    2.7219   -4.6315   39.0025 H   0  0  0  0  0  0  0  0  0  0  0  0
    2.5610   -4.4516   35.0541 H   0  0  0  0  0  0  0  0  0  0  0  0
    3.1203   -2.7892   35.4058 H   0  0  0  0  0  0  0  0  0  0  0  0
    1.2676   -1.8309   34.1475 H   0  0  0  0  0  0  0  0  0  0  0  0
    2.1312   -2.9759   33.1189 H   0  0  0  0  0  0  0  0  0  0  0  0
   -0.2019   -3.7182   34.7698 H   0  0  0  0  0  0  0  0  0  0  0  0
    0.8931   -3.7047   31.3171 H   0  0  0  0  0  0  0  0  0  0  0  0
    0.4897   -5.5052   29.7269 H   0  0  0  0  0  0  0  0  0  0  0  0
   -1.8589   -8.4956   33.5284 H   0  0  0  0  0  0  0  0  0  0  0  0
    2.8506   -8.4145   40.6371 H   0  0  0  0  0  0  0  0  0  0  0  0
    0.5751   -7.1905   40.0885 H   0  0  0  0  0  0  0  0  0  0  0  0
   -0.7049   -6.4429   37.7052 H   0  0  0  0  0  0  0  0  0  0  0  0
   -1.1992   -2.8218   37.5701 H   0  0  0  0  0  0  0  0  0  0  0  0
   -2.5229   -2.2026   40.9023 H   0  0  0  0  0  0  0  0  0  0  0  0
   -3.3341   -2.9689   39.5251 H   0  0  0  0  0  0  0  0  0  0  0  0
   -2.8938   -3.9364   40.9438 H   0  0  0  0  0  0  0  0  0  0  0  0
  1  2  1  0
  2  3  1  0
  3  4  2  0
  3  5  1  0
  5  6  1  0
  6  7  1  0
  7  8  2  3
  8  9  1  0
  9 10  1  0
 10 11  1  0
 11 12  1  0
 12 13  1  0
 13 14  2  0
 14 15  1  0
 15 16  2  0
 16 17  1  0
 17 18  2  0
 18 19  1  0
 19 20  1  0
 20 21  1  0
 21 22  1  0
 22 23  2  0
 23 24  1  0
 24 25  2  0
 24 26  1  0
 26 27  1  0
 27 28  1  0
 28 29  2  0
 29 30  1  0
 30 31  1  0
  7 32  1  0
 32 33  1  0
 33 34  2  0
 34 35  1  0
 34 36  1  0
 36 37  1  0
 20 12  2  0
 31 22  1  0
 37 32  2  0
 19 15  1  0
 30 26  2  0
  1 38  1  0
  1 39  1  0
  1 40  1  0
  5 41  1  0
  5 42  1  0
  6 43  1  0
  9 44  1  0
  9 45  1  0
 10 46  1  0
 10 47  1  0
 11 48  1  0
 13 49  1  0
 14 50  1  0
 18 51  1  0
 28 52  1  0
 29 53  1  0
 31 54  1  0
 33 55  1  0
 35 56  1  0
 35 57  1  0
 35 58  1  0
M  END
>  <Energy>  (206) 
24.384406616203012

>  <compound_id>  (206) 
2466

>  <target_id>  (206) 
1

>  <reference_id>  (206) 
166

>  <inspiration_ids>  (206) 
[166, 200]

>  <energy_score>  (206) 
-114.51800339545716

>  <distance_score>  (206) 
5.357213808624508

>  <path>  (206) 
/opt/xchem-fragalysis-2/maxwin/BulkDock/SCRATCH/505736/C2466-P166/C2466-P166.minimised.mol

>  <scratch_subdir>  (206) 
/opt/xchem-fragalysis-2/maxwin/BulkDock/SCRATCH/505736/C2466-P166

>  <fragmenstein_runtime>  (206) 
11.51774787902832

>  <fragmenstein_outcome>  (206) 
too moved

>  <fragmenstein_mode>  (206) 
expansion

>  <fragmenstein_error>  (206) 


$$$$
C2466-P200
     RDKit          3D

 58 62  0  0  0  0  0  0  0  0999 V2000
    3.5018   -3.5284   26.4609 C   0  0  0  0  0  0  0  0  0  0  0  0
    3.6484   -4.8970   26.8805 O   0  0  0  0  0  0  0  0  0  0  0  0
    3.2862   -5.3175   28.1170 C   0  0  0  0  0  0  0  0  0  0  0  0
    3.1965   -6.5226   28.3662 O   0  0  0  0  0  0  0  0  0  0  0  0
    3.0001   -4.2563   29.1761 C   0  0  0  0  0  0  0  0  0  0  0  0
    4.1305   -3.4152   29.4518 N   0  0  0  0  0  0  0  0  0  0  0  0
    4.2500   -2.1192   30.3304 C   0  0  0  0  0  0  0  0  0  0  0  0
    3.4388   -1.5747   31.0412 N   0  0  0  0  0  0  0  0  0  0  0  0
    2.0512   -1.9349   31.2641 C   0  0  0  0  0  0  0  0  0  0  0  0
    1.9071   -2.8546   32.4826 C   0  0  0  0  0  0  0  0  0  0  0  0
    0.5017   -3.2563   32.7217 N   0  0  0  0  0  0  0  0  0  0  0  0
    0.0824   -4.5388   32.4313 C   0  0  0  0  0  0  0  0  0  0  0  0
    0.1101   -4.8815   31.0176 C   0  0  0  0  0  0  0  0  0  0  0  0
   -0.2266   -6.0900   30.5611 C   0  0  0  0  0  0  0  0  0  0  0  0
   -0.7472   -7.0355   31.4559 C   0  0  0  0  0  0  0  0  0  0  0  0
   -1.3173   -8.1944   31.2430 N   0  0  0  0  0  0  0  0  0  0  0  0
   -1.7381   -8.6511   32.4541 N   0  0  0  0  0  0  0  0  0  0  0  0
   -1.3852   -7.7855   33.3776 C   0  0  0  0  0  0  0  0  0  0  0  0
   -0.8029   -6.6970   32.8007 N   0  0  0  0  0  0  0  0  0  0  0  0
   -0.3829   -5.4612   33.3136 C   0  0  0  0  0  0  0  0  0  0  0  0
   -0.5316   -5.0934   35.0163 S   0  0  0  0  0  0  0  0  0  0  0  0
    0.5363   -6.2360   35.8077 C   0  0  0  0  0  0  0  0  0  0  0  0
    1.4546   -6.8078   35.1009 N   0  0  0  0  0  0  0  0  0  0  0  0
    2.3333   -7.6712   35.7263 C   0  0  0  0  0  0  0  0  0  0  0  0
    3.1045   -8.3553   35.0623 O   0  0  0  0  0  0  0  0  0  0  0  0
    2.2083   -7.7064   37.1675 C   0  0  0  0  0  0  0  0  0  0  0  0
    3.2875   -8.4868   38.2204 S   0  0  0  0  0  0  0  0  0  0  0  0
    2.2973   -8.1214   39.5779 C   0  0  0  0  0  0  0  0  0  0  0  0
    1.2051   -7.3477   39.2341 C   0  0  0  0  0  0  0  0  0  0  0  0
    1.1796   -7.1048   37.8421 C   0  0  0  0  0  0  0  0  0  0  0  0
    0.2819   -6.3830   37.1488 N   0  0  0  0  0  0  0  0  0  0  0  0
    5.6041   -1.5706   30.2276 C   0  0  0  0  0  0  0  0  0  0  0  0
    6.1424   -0.4300   30.8757 C   0  0  0  0  0  0  0  0  0  0  0  0
    7.4400   -0.3611   30.4369 C   0  0  0  0  0  0  0  0  0  0  0  0
    8.5678    0.5504   30.6956 C   0  0  0  0  0  0  0  0  0  0  0  0
    7.6761   -1.3870   29.5778 O   0  0  0  0  0  0  0  0  0  0  0  0
    6.5306   -2.1498   29.4406 N   0  0  0  0  0  0  0  0  0  0  0  0
    2.5857   -3.0773   26.8473 H   0  0  0  0  0  0  0  0  0  0  0  0
    4.3829   -2.9560   26.7606 H   0  0  0  0  0  0  0  0  0  0  0  0
    3.4425   -3.5187   25.3711 H   0  0  0  0  0  0  0  0  0  0  0  0
    2.1283   -3.6859   28.8526 H   0  0  0  0  0  0  0  0  0  0  0  0
    2.7409   -4.7883   30.0950 H   0  0  0  0  0  0  0  0  0  0  0  0
    5.0425   -3.6340   29.0428 H   0  0  0  0  0  0  0  0  0  0  0  0
    1.5895   -2.3478   30.3691 H   0  0  0  0  0  0  0  0  0  0  0  0
    1.4913   -1.0117   31.4595 H   0  0  0  0  0  0  0  0  0  0  0  0
    2.5478   -3.7391   32.3769 H   0  0  0  0  0  0  0  0  0  0  0  0
    2.2682   -2.3240   33.3725 H   0  0  0  0  0  0  0  0  0  0  0  0
    0.2573   -3.0334   33.6906 H   0  0  0  0  0  0  0  0  0  0  0  0
    0.3624   -4.1073   30.3060 H   0  0  0  0  0  0  0  0  0  0  0  0
   -0.2154   -6.3159   29.5116 H   0  0  0  0  0  0  0  0  0  0  0  0
   -1.5605   -7.8959   34.4366 H   0  0  0  0  0  0  0  0  0  0  0  0
    2.5721   -8.4843   40.5596 H   0  0  0  0  0  0  0  0  0  0  0  0
    0.4773   -7.0007   39.9566 H   0  0  0  0  0  0  0  0  0  0  0  0
   -0.4483   -5.8211   37.5727 H   0  0  0  0  0  0  0  0  0  0  0  0
    5.6407    0.2345   31.5633 H   0  0  0  0  0  0  0  0  0  0  0  0
    9.4121    0.0035   31.1263 H   0  0  0  0  0  0  0  0  0  0  0  0
    8.9000    1.0231   29.7662 H   0  0  0  0  0  0  0  0  0  0  0  0
    8.2813    1.3409   31.3960 H   0  0  0  0  0  0  0  0  0  0  0  0
  1  2  1  0
  2  3  1  0
  3  4  2  0
  3  5  1  0
  5  6  1  0
  6  7  1  0
  7  8  2  3
  8  9  1  0
  9 10  1  0
 10 11  1  0
 11 12  1  0
 12 13  1  0
 13 14  2  0
 14 15  1  0
 15 16  2  0
 16 17  1  0
 17 18  2  0
 18 19  1  0
 19 20  1  0
 20 21  1  0
 21 22  1  0
 22 23  2  0
 23 24  1  0
 24 25  2  0
 24 26  1  0
 26 27  1  0
 27 28  1  0
 28 29  2  0
 29 30  1  0
 30 31  1  0
  7 32  1  0
 32 33  1  0
 33 34  2  0
 34 35  1  0
 34 36  1  0
 36 37  1  0
 20 12  2  0
 31 22  1  0
 37 32  2  0
 19 15  1  0
 30 26  2  0
  1 38  1  0
  1 39  1  0
  1 40  1  0
  5 41  1  0
  5 42  1  0
  6 43  1  0
  9 44  1  0
  9 45  1  0
 10 46  1  0
 10 47  1  0
 11 48  1  0
 13 49  1  0
 14 50  1  0
 18 51  1  0
 28 52  1  0
 29 53  1  0
 31 54  1  0
 33 55  1  0
 35 56  1  0
 35 57  1  0
 35 58  1  0
M  END
>  <Energy>  (207) 
56.973604856310835

>  <compound_id>  (207) 
2466

>  <target_id>  (207) 
1

>  <reference_id>  (207) 
200

>  <inspiration_ids>  (207) 
[166, 200]

>  <energy_score>  (207) 
-56.38885229442004

>  <distance_score>  (207) 
1.774645617675581

>  <path>  (207) 
/opt/xchem-fragalysis-2/maxwin/BulkDock/SCRATCH/505736/C2466-P200/C2466-P200.minimised.mol

>  <scratch_subdir>  (207) 
/opt/xchem-fragalysis-2/maxwin/BulkDock/SCRATCH/505736/C2466-P200

>  <fragmenstein_runtime>  (207) 
9.056374073028564

>  <fragmenstein_outcome>  (207) 
too moved

>  <fragmenstein_mode>  (207) 
expansion

>  <fragmenstein_error>  (207) 


$$$$
C2468-P167
     RDKit          3D

 49 53  0  0  0  0  0  0  0  0999 V2000
    0.5700   -1.1143   35.1551 C   0  0  0  0  0  0  0  0  0  0  0  0
    1.5634   -2.2447   35.1843 N   0  0  0  0  0  0  0  0  0  0  0  0
    2.3506   -1.1991   35.9129 C   0  0  0  0  0  0  0  0  0  0  0  0
    3.5175   -1.9726   36.5296 C   0  0  0  0  0  0  0  0  0  0  0  0
    4.7030   -2.1680   35.8048 C   0  0  0  0  0  0  0  0  0  0  0  0
    5.7558   -2.9008   36.3547 C   0  0  0  0  0  0  0  0  0  0  0  0
    5.6328   -3.4521   37.6288 C   0  0  0  0  0  0  0  0  0  0  0  0
    4.4550   -3.2772   38.3531 C   0  0  0  0  0  0  0  0  0  0  0  0
    3.3998   -2.5453   37.8059 C   0  0  0  0  0  0  0  0  0  0  0  0
    1.7591   -2.8390   33.7987 C   0  0  0  0  0  0  0  0  0  0  0  0
    2.5033   -2.5645   32.9760 O   0  0  0  0  0  0  0  0  0  0  0  0
    0.7289   -3.9834   33.8708 N   0  0  0  0  0  0  0  0  0  0  0  0
    0.4971   -5.0181   33.0159 C   0  0  0  0  0  0  0  0  0  0  0  0
    0.9094   -4.9343   31.6220 C   0  0  0  0  0  0  0  0  0  0  0  0
    0.5257   -5.8575   30.7216 C   0  0  0  0  0  0  0  0  0  0  0  0
   -0.2791   -6.9488   31.1379 C   0  0  0  0  0  0  0  0  0  0  0  0
   -0.8546   -7.9263   30.4732 N   0  0  0  0  0  0  0  0  0  0  0  0
   -1.5492   -8.6898   31.3772 N   0  0  0  0  0  0  0  0  0  0  0  0
   -1.3781   -8.1633   32.5697 C   0  0  0  0  0  0  0  0  0  0  0  0
   -0.5911   -7.0463   32.4869 N   0  0  0  0  0  0  0  0  0  0  0  0
   -0.1989   -6.1004   33.4371 C   0  0  0  0  0  0  0  0  0  0  0  0
   -0.7094   -6.2560   35.0860 S   0  0  0  0  0  0  0  0  0  0  0  0
    0.4573   -7.3016   35.8403 C   0  0  0  0  0  0  0  0  0  0  0  0
    1.5547   -7.5753   35.2120 N   0  0  0  0  0  0  0  0  0  0  0  0
    2.4963   -8.3510   35.8614 C   0  0  0  0  0  0  0  0  0  0  0  0
    3.4156   -8.8662   35.2356 O   0  0  0  0  0  0  0  0  0  0  0  0
    2.2398   -8.5466   37.2703 C   0  0  0  0  0  0  0  0  0  0  0  0
    3.3276   -9.2388   38.3709 S   0  0  0  0  0  0  0  0  0  0  0  0
    2.1468   -9.2032   39.6234 C   0  0  0  0  0  0  0  0  0  0  0  0
    0.9530   -8.6499   39.2018 C   0  0  0  0  0  0  0  0  0  0  0  0
    1.0341   -8.2564   37.8497 C   0  0  0  0  0  0  0  0  0  0  0  0
    0.0798   -7.6860   37.0999 N   0  0  0  0  0  0  0  0  0  0  0  0
    0.1038   -0.8951   36.1281 H   0  0  0  0  0  0  0  0  0  0  0  0
    0.8746   -0.2285   34.5740 H   0  0  0  0  0  0  0  0  0  0  0  0
   -0.2766   -1.5015   34.5671 H   0  0  0  0  0  0  0  0  0  0  0  0
    1.8874   -0.7048   36.7847 H   0  0  0  0  0  0  0  0  0  0  0  0
    2.7975   -0.4631   35.2247 H   0  0  0  0  0  0  0  0  0  0  0  0
    4.8032   -1.7665   34.7980 H   0  0  0  0  0  0  0  0  0  0  0  0
    6.6676   -3.0514   35.7826 H   0  0  0  0  0  0  0  0  0  0  0  0
    6.4515   -4.0284   38.0519 H   0  0  0  0  0  0  0  0  0  0  0  0
    4.3563   -3.7195   39.3409 H   0  0  0  0  0  0  0  0  0  0  0  0
    2.4813   -2.4329   38.3760 H   0  0  0  0  0  0  0  0  0  0  0  0
    0.2862   -3.9856   34.7827 H   0  0  0  0  0  0  0  0  0  0  0  0
    1.5162   -4.0916   31.3038 H   0  0  0  0  0  0  0  0  0  0  0  0
    0.8111   -5.7740   29.6805 H   0  0  0  0  0  0  0  0  0  0  0  0
   -1.8126   -8.5294   33.4893 H   0  0  0  0  0  0  0  0  0  0  0  0
    2.3791   -9.6121   40.5972 H   0  0  0  0  0  0  0  0  0  0  0  0
    0.0769   -8.5678   39.8319 H   0  0  0  0  0  0  0  0  0  0  0  0
   -0.9100   -7.6197   37.3548 H   0  0  0  0  0  0  0  0  0  0  0  0
  1  2  1  0
  2  3  1  0
  3  4  1  0
  4  5  2  0
  5  6  1  0
  6  7  2  0
  7  8  1  0
  8  9  2  0
  2 10  1  0
 10 11  2  0
 10 12  1  0
 12 13  1  0
 13 14  1  0
 14 15  2  0
 15 16  1  0
 16 17  2  0
 17 18  1  0
 18 19  2  0
 19 20  1  0
 20 21  1  0
 21 22  1  0
 22 23  1  0
 23 24  2  0
 24 25  1  0
 25 26  2  0
 25 27  1  0
 27 28  1  0
 28 29  1  0
 29 30  2  0
 30 31  1  0
 31 32  1  0
  9  4  1  0
 21 13  2  0
 32 23  1  0
 20 16  1  0
 31 27  2  0
  1 33  1  0
  1 34  1  0
  1 35  1  0
  3 36  1  0
  3 37  1  0
  5 38  1  0
  6 39  1  0
  7 40  1  0
  8 41  1  0
  9 42  1  0
 12 43  1  0
 14 44  1  0
 15 45  1  0
 19 46  1  0
 29 47  1  0
 30 48  1  0
 32 49  1  0
M  END
>  <Energy>  (208) 
24.489825672018146

>  <compound_id>  (208) 
2468

>  <target_id>  (208) 
1

>  <reference_id>  (208) 
167

>  <inspiration_ids>  (208) 
[167, 41]

>  <energy_score>  (208) 
12.54584179759318

>  <distance_score>  (208) 
1.2087661121856492

>  <path>  (208) 
/opt/xchem-fragalysis-2/maxwin/BulkDock/SCRATCH/505736/C2468-P167/C2468-P167.minimised.mol

>  <scratch_subdir>  (208) 
/opt/xchem-fragalysis-2/maxwin/BulkDock/SCRATCH/505736/C2468-P167

>  <fragmenstein_runtime>  (208) 
2.8561789989471436

>  <fragmenstein_outcome>  (208) 
too moved

>  <fragmenstein_mode>  (208) 
expansion

>  <fragmenstein_error>  (208) 


$$$$
C2468-P41
     RDKit          3D

 49 53  0  0  0  0  0  0  0  0999 V2000
    3.6893   -2.1233   34.9161 C   0  0  0  0  0  0  0  0  0  0  0  0
    2.2449   -2.3613   35.2716 N   0  0  0  0  0  0  0  0  0  0  0  0
    2.6643   -1.5399   36.4558 C   0  0  0  0  0  0  0  0  0  0  0  0
    1.4240   -1.4828   37.3547 C   0  0  0  0  0  0  0  0  0  0  0  0
    0.4432   -0.5004   37.1502 C   0  0  0  0  0  0  0  0  0  0  0  0
   -0.6987   -0.4632   37.9525 C   0  0  0  0  0  0  0  0  0  0  0  0
   -0.8767   -1.4101   38.9598 C   0  0  0  0  0  0  0  0  0  0  0  0
    0.0833   -2.3994   39.1636 C   0  0  0  0  0  0  0  0  0  0  0  0
    1.2261   -2.4392   38.3634 C   0  0  0  0  0  0  0  0  0  0  0  0
    1.8909   -3.8339   35.1705 C   0  0  0  0  0  0  0  0  0  0  0  0
    1.9403   -4.6610   35.9583 O   0  0  0  0  0  0  0  0  0  0  0  0
    1.3475   -3.8635   33.7174 N   0  0  0  0  0  0  0  0  0  0  0  0
    0.7040   -4.8595   33.0301 C   0  0  0  0  0  0  0  0  0  0  0  0
    0.8747   -4.7638   31.5776 C   0  0  0  0  0  0  0  0  0  0  0  0
    0.3470   -5.6592   30.7279 C   0  0  0  0  0  0  0  0  0  0  0  0
   -0.4228   -6.7298   31.2351 C   0  0  0  0  0  0  0  0  0  0  0  0
   -1.0772   -7.7066   30.6451 N   0  0  0  0  0  0  0  0  0  0  0  0
   -1.7044   -8.4356   31.6206 N   0  0  0  0  0  0  0  0  0  0  0  0
   -1.4195   -7.8810   32.7771 C   0  0  0  0  0  0  0  0  0  0  0  0
   -0.6141   -6.7851   32.6075 N   0  0  0  0  0  0  0  0  0  0  0  0
   -0.0845   -5.8514   33.5206 C   0  0  0  0  0  0  0  0  0  0  0  0
   -0.6723   -5.9192   35.1593 S   0  0  0  0  0  0  0  0  0  0  0  0
    0.4596   -7.0103   35.9411 C   0  0  0  0  0  0  0  0  0  0  0  0
    1.3345   -7.6336   35.2183 N   0  0  0  0  0  0  0  0  0  0  0  0
    2.2662   -8.4304   35.8564 C   0  0  0  0  0  0  0  0  0  0  0  0
    3.1203   -9.0215   35.2048 O   0  0  0  0  0  0  0  0  0  0  0  0
    2.1193   -8.5018   37.2918 C   0  0  0  0  0  0  0  0  0  0  0  0
    3.1351   -9.3838   38.3248 S   0  0  0  0  0  0  0  0  0  0  0  0
    2.2267   -8.9023   39.7041 C   0  0  0  0  0  0  0  0  0  0  0  0
    1.1816   -8.0613   39.3741 C   0  0  0  0  0  0  0  0  0  0  0  0
    1.1369   -7.8422   37.9794 C   0  0  0  0  0  0  0  0  0  0  0  0
    0.2662   -7.0828   37.2982 N   0  0  0  0  0  0  0  0  0  0  0  0
    3.8096   -2.6020   33.9318 H   0  0  0  0  0  0  0  0  0  0  0  0
    3.9661   -1.0779   34.7097 H   0  0  0  0  0  0  0  0  0  0  0  0
    4.4118   -2.6792   35.5347 H   0  0  0  0  0  0  0  0  0  0  0  0
    2.8948   -0.4877   36.2211 H   0  0  0  0  0  0  0  0  0  0  0  0
    3.4355   -2.0004   37.0964 H   0  0  0  0  0  0  0  0  0  0  0  0
    0.5593    0.2353   36.3580 H   0  0  0  0  0  0  0  0  0  0  0  0
   -1.4533    0.3013   37.7871 H   0  0  0  0  0  0  0  0  0  0  0  0
   -1.7676   -1.3818   39.5817 H   0  0  0  0  0  0  0  0  0  0  0  0
   -0.0610   -3.1436   39.9422 H   0  0  0  0  0  0  0  0  0  0  0  0
    1.9556   -3.2317   38.5188 H   0  0  0  0  0  0  0  0  0  0  0  0
    1.3813   -2.9319   33.3226 H   0  0  0  0  0  0  0  0  0  0  0  0
    1.4571   -3.9373   31.1787 H   0  0  0  0  0  0  0  0  0  0  0  0
    0.4837   -5.5557   29.6605 H   0  0  0  0  0  0  0  0  0  0  0  0
   -1.7676   -8.2197   33.7398 H   0  0  0  0  0  0  0  0  0  0  0  0
    2.5110   -9.2554   40.6865 H   0  0  0  0  0  0  0  0  0  0  0  0
    0.5002   -7.6448   40.1052 H   0  0  0  0  0  0  0  0  0  0  0  0
   -0.3848   -6.4293   37.7173 H   0  0  0  0  0  0  0  0  0  0  0  0
  1  2  1  0
  2  3  1  0
  3  4  1  0
  4  5  2  0
  5  6  1  0
  6  7  2  0
  7  8  1  0
  8  9  2  0
  2 10  1  0
 10 11  2  0
 10 12  1  0
 12 13  1  0
 13 14  1  0
 14 15  2  0
 15 16  1  0
 16 17  2  0
 17 18  1  0
 18 19  2  0
 19 20  1  0
 20 21  1  0
 21 22  1  0
 22 23  1  0
 23 24  2  0
 24 25  1  0
 25 26  2  0
 25 27  1  0
 27 28  1  0
 28 29  1  0
 29 30  2  0
 30 31  1  0
 31 32  1  0
  9  4  1  0
 21 13  2  0
 32 23  1  0
 20 16  1  0
 31 27  2  0
  1 33  1  0
  1 34  1  0
  1 35  1  0
  3 36  1  0
  3 37  1  0
  5 38  1  0
  6 39  1  0
  7 40  1  0
  8 41  1  0
  9 42  1  0
 12 43  1  0
 14 44  1  0
 15 45  1  0
 19 46  1  0
 29 47  1  0
 30 48  1  0
 32 49  1  0
M  END
>  <Energy>  (209) 
27.746774548028768

>  <compound_id>  (209) 
2468

>  <target_id>  (209) 
1

>  <reference_id>  (209) 
41

>  <inspiration_ids>  (209) 
[167, 41]

>  <energy_score>  (209) 
15.80279067360496

>  <distance_score>  (209) 
0.9948782626658113

>  <path>  (209) 
/opt/xchem-fragalysis-2/maxwin/BulkDock/SCRATCH/505736/C2468-P41/C2468-P41.minimised.mol

>  <scratch_subdir>  (209) 
/opt/xchem-fragalysis-2/maxwin/BulkDock/SCRATCH/505736/C2468-P41

>  <fragmenstein_runtime>  (209) 
2.926370143890381

>  <fragmenstein_outcome>  (209) 
too contorted

>  <fragmenstein_mode>  (209) 
expansion

>  <fragmenstein_error>  (209) 


$$$$
C2441-P167
     RDKit          3D

 54 58  0  0  0  0  0  0  0  0999 V2000
    2.7692   -0.4805   35.4872 C   0  0  0  0  0  0  0  0  0  0  0  0
    2.7731   -1.8210   35.9621 O   0  0  0  0  0  0  0  0  0  0  0  0
    2.2445   -2.7559   35.0369 C   0  0  0  0  0  0  0  0  0  0  0  0
    0.7417   -2.6011   34.8152 C   0  0  0  0  0  0  0  0  0  0  0  0
    0.0264   -3.9202   34.5150 C   0  0  0  0  0  0  0  0  0  0  0  0
    0.8565   -4.9571   33.6758 C   0  0  0  0  0  0  0  0  0  0  0  0
    0.9308   -4.3630   32.2135 C   0  0  0  0  0  0  0  0  0  0  0  0
    1.1522   -5.3923   31.1081 C   0  0  0  0  0  0  0  0  0  0  0  0
    0.1041   -6.4275   31.1781 C   0  0  0  0  0  0  0  0  0  0  0  0
   -0.4211   -7.1389   30.2101 N   0  0  0  0  0  0  0  0  0  0  0  0
   -1.3241   -7.9965   30.7748 N   0  0  0  0  0  0  0  0  0  0  0  0
   -1.2883   -7.8336   32.0759 C   0  0  0  0  0  0  0  0  0  0  0  0
   -2.0074   -8.5241   32.9536 N   0  0  0  0  0  0  0  0  0  0  0  0
   -0.4195   -6.8199   32.3829 N   0  0  0  0  0  0  0  0  0  0  0  0
    0.2330   -6.4331   33.6357 C   0  0  0  0  0  0  0  0  0  0  0  0
   -0.7160   -6.8461   35.1101 S   0  0  0  0  0  0  0  0  0  0  0  0
    0.4704   -7.6312   36.1030 C   0  0  0  0  0  0  0  0  0  0  0  0
    1.5780   -7.9907   35.5450 N   0  0  0  0  0  0  0  0  0  0  0  0
    2.5704   -8.5495   36.3137 C   0  0  0  0  0  0  0  0  0  0  0  0
    3.6123   -8.9223   35.7865 O   0  0  0  0  0  0  0  0  0  0  0  0
    2.2299   -8.6792   37.7077 C   0  0  0  0  0  0  0  0  0  0  0  0
    3.2529   -9.3417   38.8837 S   0  0  0  0  0  0  0  0  0  0  0  0
    2.0240   -9.2127   40.0801 C   0  0  0  0  0  0  0  0  0  0  0  0
    0.8637   -8.6508   39.5833 C   0  0  0  0  0  0  0  0  0  0  0  0
    1.0049   -8.3333   38.2167 C   0  0  0  0  0  0  0  0  0  0  0  0
    0.0867   -7.7840   37.4044 N   0  0  0  0  0  0  0  0  0  0  0  0
    2.3185   -5.0680   34.2864 C   0  0  0  0  0  0  0  0  0  0  0  0
    2.5817   -4.1661   35.5152 C   0  0  0  0  0  0  0  0  0  0  0  0
    1.8009   -4.6393   36.6277 O   0  0  0  0  0  0  0  0  0  0  0  0
    1.8876   -3.8732   37.8199 C   0  0  0  0  0  0  0  0  0  0  0  0
    3.2447    0.1499   36.2435 H   0  0  0  0  0  0  0  0  0  0  0  0
    3.3415   -0.3985   34.5582 H   0  0  0  0  0  0  0  0  0  0  0  0
    1.7476   -0.1218   35.3349 H   0  0  0  0  0  0  0  0  0  0  0  0
    2.7666   -2.5871   34.0849 H   0  0  0  0  0  0  0  0  0  0  0  0
    0.2631   -2.1208   35.6776 H   0  0  0  0  0  0  0  0  0  0  0  0
    0.5846   -1.9079   33.9786 H   0  0  0  0  0  0  0  0  0  0  0  0
   -0.8961   -3.6746   33.9848 H   0  0  0  0  0  0  0  0  0  0  0  0
   -0.2880   -4.3236   35.4798 H   0  0  0  0  0  0  0  0  0  0  0  0
    1.7078   -3.5920   32.1504 H   0  0  0  0  0  0  0  0  0  0  0  0
   -0.0145   -3.8489   31.9873 H   0  0  0  0  0  0  0  0  0  0  0  0
    1.1242   -4.8971   30.1313 H   0  0  0  0  0  0  0  0  0  0  0  0
    2.1401   -5.8477   31.2163 H   0  0  0  0  0  0  0  0  0  0  0  0
   -1.8118   -8.5932   33.9512 H   0  0  0  0  0  0  0  0  0  0  0  0
   -2.6436   -9.2392   32.6087 H   0  0  0  0  0  0  0  0  0  0  0  0
    1.0834   -7.1177   33.5686 H   0  0  0  0  0  0  0  0  0  0  0  0
    2.2073   -9.5749   41.0822 H   0  0  0  0  0  0  0  0  0  0  0  0
   -0.0320   -8.5111   40.1731 H   0  0  0  0  0  0  0  0  0  0  0  0
   -0.9170   -7.7360   37.6005 H   0  0  0  0  0  0  0  0  0  0  0  0
    2.5669   -6.0888   34.5699 H   0  0  0  0  0  0  0  0  0  0  0  0
    3.0532   -4.8214   33.5079 H   0  0  0  0  0  0  0  0  0  0  0  0
    3.6389   -4.2384   35.7983 H   0  0  0  0  0  0  0  0  0  0  0  0
    2.9309   -3.6652   38.0747 H   0  0  0  0  0  0  0  0  0  0  0  0
    1.4439   -4.4591   38.6298 H   0  0  0  0  0  0  0  0  0  0  0  0
    1.3183   -2.9454   37.7295 H   0  0  0  0  0  0  0  0  0  0  0  0
  1  2  1  0
  2  3  1  0
  3  4  1  0
  4  5  1  0
  5  6  1  0
  6  7  1  0
  7  8  1  0
  8  9  1  0
  9 10  2  0
 10 11  1  0
 11 12  2  0
 12 13  1  0
 12 14  1  0
 14 15  1  0
 15 16  1  0
 16 17  1  0
 17 18  2  0
 18 19  1  0
 19 20  2  0
 19 21  1  0
 21 22  1  0
 22 23  1  0
 23 24  2  0
 24 25  1  0
 25 26  1  0
  6 27  1  0
 27 28  1  0
 28 29  1  0
 29 30  1  0
 28  3  1  0
 15  6  1  0
 26 17  1  0
 14  9  1  0
 25 21  2  0
  1 31  1  0
  1 32  1  0
  1 33  1  0
  3 34  1  0
  4 35  1  0
  4 36  1  0
  5 37  1  0
  5 38  1  0
  7 39  1  0
  7 40  1  0
  8 41  1  0
  8 42  1  0
 13 43  1  0
 13 44  1  0
 15 45  1  0
 23 46  1  0
 24 47  1  0
 26 48  1  0
 27 49  1  0
 27 50  1  0
 28 51  1  0
 30 52  1  0
 30 53  1  0
 30 54  1  0
M  END
>  <Energy>  (210) 
0.60633039170807823

>  <compound_id>  (210) 
2441

>  <target_id>  (210) 
1

>  <reference_id>  (210) 
167

>  <inspiration_ids>  (210) 
[167, 56]

>  <energy_score>  (210) 
-102.81316836995538

>  <distance_score>  (210) 
1.770849957509428

>  <path>  (210) 
/opt/xchem-fragalysis-2/maxwin/BulkDock/SCRATCH/505736/C2441-P167/C2441-P167.minimised.mol

>  <scratch_subdir>  (210) 
/opt/xchem-fragalysis-2/maxwin/BulkDock/SCRATCH/505736/C2441-P167

>  <fragmenstein_runtime>  (210) 
3.030341625213623

>  <fragmenstein_outcome>  (210) 
too moved

>  <fragmenstein_mode>  (210) 
expansion

>  <fragmenstein_error>  (210) 


$$$$
C2441-P56
     RDKit          3D

 54 58  0  0  0  0  0  0  0  0999 V2000
    3.2295   -0.5458   35.2225 C   0  0  0  0  0  0  0  0  0  0  0  0
    1.8400   -0.8452   35.2301 O   0  0  0  0  0  0  0  0  0  0  0  0
    1.5062   -2.0752   34.5769 C   0  0  0  0  0  0  0  0  0  0  0  0
   -0.0150   -2.1426   34.4685 C   0  0  0  0  0  0  0  0  0  0  0  0
   -0.6155   -3.5379   34.2750 C   0  0  0  0  0  0  0  0  0  0  0  0
    0.3343   -4.6334   33.7507 C   0  0  0  0  0  0  0  0  0  0  0  0
    0.7981   -4.2070   32.3044 C   0  0  0  0  0  0  0  0  0  0  0  0
    0.8873   -5.3170   31.2625 C   0  0  0  0  0  0  0  0  0  0  0  0
   -0.3240   -6.1590   31.2804 C   0  0  0  0  0  0  0  0  0  0  0  0
   -0.9003   -6.7921   30.2874 N   0  0  0  0  0  0  0  0  0  0  0  0
   -1.7422   -7.7178   30.8390 N   0  0  0  0  0  0  0  0  0  0  0  0
   -1.6477   -7.6451   32.1443 C   0  0  0  0  0  0  0  0  0  0  0  0
   -2.1477   -8.5322   33.0177 N   0  0  0  0  0  0  0  0  0  0  0  0
   -0.9132   -6.5310   32.4661 N   0  0  0  0  0  0  0  0  0  0  0  0
   -0.3103   -6.1158   33.7328 C   0  0  0  0  0  0  0  0  0  0  0  0
   -1.3555   -6.6555   35.2558 S   0  0  0  0  0  0  0  0  0  0  0  0
   -0.2133   -7.7370   36.0514 C   0  0  0  0  0  0  0  0  0  0  0  0
    0.9086   -7.6071   35.4341 N   0  0  0  0  0  0  0  0  0  0  0  0
    2.1437   -7.8981   35.8936 C   0  0  0  0  0  0  0  0  0  0  0  0
    3.2317   -7.6630   35.4048 O   0  0  0  0  0  0  0  0  0  0  0  0
    1.9397   -8.3289   37.3377 C   0  0  0  0  0  0  0  0  0  0  0  0
    3.9090   -8.2357   38.9365 S   0  0  0  0  0  0  0  0  0  0  0  0
    2.1783   -8.2393   40.8059 C   0  0  0  0  0  0  0  0  0  0  0  0
    0.4316   -8.7149   40.2185 C   0  0  0  0  0  0  0  0  0  0  0  0
    0.3466   -9.1857   38.2257 C   0  0  0  0  0  0  0  0  0  0  0  0
   -0.7011   -8.4053   37.2483 N   0  0  0  0  0  0  0  0  0  0  0  0
    1.5526   -4.6620   34.7314 C   0  0  0  0  0  0  0  0  0  0  0  0
    2.1295   -3.3209   35.2246 C   0  0  0  0  0  0  0  0  0  0  0  0
    2.2138   -3.2811   36.6590 O   0  0  0  0  0  0  0  0  0  0  0  0
    1.0148   -3.1368   37.3944 C   0  0  0  0  0  0  0  0  0  0  0  0
    3.3599    0.4676   35.6121 H   0  0  0  0  0  0  0  0  0  0  0  0
    3.7831   -1.2301   35.8704 H   0  0  0  0  0  0  0  0  0  0  0  0
    3.6291   -0.5791   34.2045 H   0  0  0  0  0  0  0  0  0  0  0  0
    1.8897   -1.9946   33.5530 H   0  0  0  0  0  0  0  0  0  0  0  0
   -0.4937   -1.6646   35.3325 H   0  0  0  0  0  0  0  0  0  0  0  0
   -0.3161   -1.5066   33.6240 H   0  0  0  0  0  0  0  0  0  0  0  0
   -1.4440   -3.4209   33.5711 H   0  0  0  0  0  0  0  0  0  0  0  0
   -1.0386   -3.8378   35.2382 H   0  0  0  0  0  0  0  0  0  0  0  0
    1.7778   -3.7193   32.3365 H   0  0  0  0  0  0  0  0  0  0  0  0
    0.1007   -3.4571   31.9062 H   0  0  0  0  0  0  0  0  0  0  0  0
    1.0289   -4.8805   30.2675 H   0  0  0  0  0  0  0  0  0  0  0  0
    1.7652   -5.9399   31.4655 H   0  0  0  0  0  0  0  0  0  0  0  0
   -2.3065   -8.2791   33.9865 H   0  0  0  0  0  0  0  0  0  0  0  0
   -2.8298   -9.1954   32.6603 H   0  0  0  0  0  0  0  0  0  0  0  0
    0.5693   -6.7527   33.6536 H   0  0  0  0  0  0  0  0  0  0  0  0
    2.6724   -8.4271   41.7628 H   0  0  0  0  0  0  0  0  0  0  0  0
   -0.3026   -9.1559   40.8922 H   0  0  0  0  0  0  0  0  0  0  0  0
   -1.1566   -7.6449   37.7436 H   0  0  0  0  0  0  0  0  0  0  0  0
    1.2795   -5.2252   35.6244 H   0  0  0  0  0  0  0  0  0  0  0  0
    2.3627   -5.2319   34.2570 H   0  0  0  0  0  0  0  0  0  0  0  0
    3.1853   -3.3235   34.9236 H   0  0  0  0  0  0  0  0  0  0  0  0
    0.2816   -3.9022   37.1330 H   0  0  0  0  0  0  0  0  0  0  0  0
    0.5939   -2.1378   37.2663 H   0  0  0  0  0  0  0  0  0  0  0  0
    1.2562   -3.2570   38.4547 H   0  0  0  0  0  0  0  0  0  0  0  0
  1  2  1  0
  2  3  1  0
  3  4  1  0
  4  5  1  0
  5  6  1  0
  6  7  1  0
  7  8  1  0
  8  9  1  0
  9 10  2  0
 10 11  1  0
 11 12  2  0
 12 13  1  0
 12 14  1  0
 14 15  1  0
 15 16  1  0
 16 17  1  0
 17 18  2  0
 18 19  1  0
 19 20  2  0
 19 21  1  0
 21 22  1  0
 22 23  1  0
 23 24  2  0
 24 25  1  0
 25 26  1  0
  6 27  1  0
 27 28  1  0
 28 29  1  0
 29 30  1  0
 28  3  1  0
 15  6  1  0
 26 17  1  0
 14  9  1  0
 25 21  2  0
  1 31  1  0
  1 32  1  0
  1 33  1  0
  3 34  1  0
  4 35  1  0
  4 36  1  0
  5 37  1  0
  5 38  1  0
  7 39  1  0
  7 40  1  0
  8 41  1  0
  8 42  1  0
 13 43  1  0
 13 44  1  0
 15 45  1  0
 23 46  1  0
 24 47  1  0
 26 48  1  0
 27 49  1  0
 27 50  1  0
 28 51  1  0
 30 52  1  0
 30 53  1  0
 30 54  1  0
M  END
>  <Energy>  (211) 
729.87030782743147

>  <compound_id>  (211) 
2441

>  <target_id>  (211) 
1

>  <reference_id>  (211) 
56

>  <inspiration_ids>  (211) 
[167, 56]

>  <energy_score>  (211) 
628.439950635305

>  <distance_score>  (211) 
2.0309443169173695

>  <path>  (211) 
/opt/xchem-fragalysis-2/maxwin/BulkDock/SCRATCH/505736/C2441-P56/C2441-P56.minimised.mol

>  <scratch_subdir>  (211) 
/opt/xchem-fragalysis-2/maxwin/BulkDock/SCRATCH/505736/C2441-P56

>  <fragmenstein_runtime>  (211) 
4.593607425689697

>  <fragmenstein_outcome>  (211) 
too moved

>  <fragmenstein_mode>  (211) 
expansion

>  <fragmenstein_error>  (211) 


$$$$
C2441-P167
     RDKit          3D

 54 58  0  0  0  0  0  0  0  0999 V2000
   -0.9584    0.2690   29.9308 C   0  0  0  0  0  0  0  0  0  0  0  0
   -0.7044   -0.3631   31.1760 O   0  0  0  0  0  0  0  0  0  0  0  0
   -1.7041   -1.2990   31.5896 C   0  0  0  0  0  0  0  0  0  0  0  0
   -1.7579   -2.5432   30.7250 C   0  0  0  0  0  0  0  0  0  0  0  0
   -0.5067   -3.4168   30.8198 C   0  0  0  0  0  0  0  0  0  0  0  0
    0.1802   -3.7103   32.2377 C   0  0  0  0  0  0  0  0  0  0  0  0
    1.6229   -4.1531   31.8781 C   0  0  0  0  0  0  0  0  0  0  0  0
    1.5974   -5.3878   30.9393 C   0  0  0  0  0  0  0  0  0  0  0  0
    0.5794   -6.4050   31.3384 C   0  0  0  0  0  0  0  0  0  0  0  0
    0.1317   -7.4431   30.6634 N   0  0  0  0  0  0  0  0  0  0  0  0
   -0.7907   -8.0933   31.4542 N   0  0  0  0  0  0  0  0  0  0  0  0
   -0.9058   -7.4292   32.5813 C   0  0  0  0  0  0  0  0  0  0  0  0
   -1.6423   -7.7770   33.6479 N   0  0  0  0  0  0  0  0  0  0  0  0
   -0.1611   -6.2798   32.4806 N   0  0  0  0  0  0  0  0  0  0  0  0
   -0.3670   -4.9812   33.1013 C   0  0  0  0  0  0  0  0  0  0  0  0
   -0.0686   -4.9145   34.9183 S   0  0  0  0  0  0  0  0  0  0  0  0
    0.6567   -6.4002   35.4834 C   0  0  0  0  0  0  0  0  0  0  0  0
    1.7194   -6.8557   34.9001 N   0  0  0  0  0  0  0  0  0  0  0  0
    2.3429   -7.9529   35.4858 C   0  0  0  0  0  0  0  0  0  0  0  0
    3.0794   -8.6939   34.8456 O   0  0  0  0  0  0  0  0  0  0  0  0
    1.9997   -8.1590   36.8700 C   0  0  0  0  0  0  0  0  0  0  0  0
    2.9139   -9.0356   37.9950 S   0  0  0  0  0  0  0  0  0  0  0  0
    1.6744   -8.8772   39.1794 C   0  0  0  0  0  0  0  0  0  0  0  0
    0.6156   -8.1119   38.7254 C   0  0  0  0  0  0  0  0  0  0  0  0
    0.8404   -7.6742   37.4013 C   0  0  0  0  0  0  0  0  0  0  0  0
    0.0662   -6.8881   36.6295 N   0  0  0  0  0  0  0  0  0  0  0  0
    0.0805   -2.3644   33.0408 C   0  0  0  0  0  0  0  0  0  0  0  0
   -1.3780   -1.8082   33.0062 C   0  0  0  0  0  0  0  0  0  0  0  0
   -1.6046   -0.7795   33.9718 O   0  0  0  0  0  0  0  0  0  0  0  0
   -2.9565   -0.7620   34.4324 C   0  0  0  0  0  0  0  0  0  0  0  0
   -0.2408    1.0850   29.8094 H   0  0  0  0  0  0  0  0  0  0  0  0
   -0.8167   -0.4325   29.1046 H   0  0  0  0  0  0  0  0  0  0  0  0
   -1.9685    0.6867   29.9036 H   0  0  0  0  0  0  0  0  0  0  0  0
   -2.6722   -0.7867   31.5812 H   0  0  0  0  0  0  0  0  0  0  0  0
   -2.6246   -3.1243   31.0452 H   0  0  0  0  0  0  0  0  0  0  0  0
   -1.9246   -2.2903   29.6730 H   0  0  0  0  0  0  0  0  0  0  0  0
    0.2433   -2.9169   30.1893 H   0  0  0  0  0  0  0  0  0  0  0  0
   -0.7418   -4.3559   30.3149 H   0  0  0  0  0  0  0  0  0  0  0  0
    2.1782   -3.3414   31.3922 H   0  0  0  0  0  0  0  0  0  0  0  0
    2.1810   -4.3964   32.7915 H   0  0  0  0  0  0  0  0  0  0  0  0
    2.5924   -5.8301   30.9305 H   0  0  0  0  0  0  0  0  0  0  0  0
    1.4030   -5.0747   29.9068 H   0  0  0  0  0  0  0  0  0  0  0  0
   -1.9098   -8.7660   33.6926 H   0  0  0  0  0  0  0  0  0  0  0  0
   -1.4506   -7.4442   34.5858 H   0  0  0  0  0  0  0  0  0  0  0  0
   -1.4197   -4.8580   32.9707 H   0  0  0  0  0  0  0  0  0  0  0  0
    1.7746   -9.3699   40.1372 H   0  0  0  0  0  0  0  0  0  0  0  0
   -0.2680   -7.9125   39.3161 H   0  0  0  0  0  0  0  0  0  0  0  0
   -0.8251   -6.5181   36.9412 H   0  0  0  0  0  0  0  0  0  0  0  0
    0.4240   -2.4543   34.0740 H   0  0  0  0  0  0  0  0  0  0  0  0
    0.7710   -1.6295   32.6077 H   0  0  0  0  0  0  0  0  0  0  0  0
   -2.0509   -2.6299   33.2556 H   0  0  0  0  0  0  0  0  0  0  0  0
   -3.0658    0.0758   35.1264 H   0  0  0  0  0  0  0  0  0  0  0  0
   -3.6564   -0.6191   33.6047 H   0  0  0  0  0  0  0  0  0  0  0  0
   -3.1871   -1.6870   34.9700 H   0  0  0  0  0  0  0  0  0  0  0  0
  1  2  1  0
  2  3  1  0
  3  4  1  0
  4  5  1  0
  5  6  1  0
  6  7  1  0
  7  8  1  0
  8  9  1  0
  9 10  2  0
 10 11  1  0
 11 12  2  0
 12 13  1  0
 12 14  1  0
 14 15  1  0
 15 16  1  0
 16 17  1  0
 17 18  2  0
 18 19  1  0
 19 20  2  0
 19 21  1  0
 21 22  1  0
 22 23  1  0
 23 24  2  0
 24 25  1  0
 25 26  1  0
  6 27  1  0
 27 28  1  0
 28 29  1  0
 29 30  1  0
 28  3  1  0
 15  6  1  0
 26 17  1  0
 14  9  1  0
 25 21  2  0
  1 31  1  0
  1 32  1  0
  1 33  1  0
  3 34  1  0
  4 35  1  0
  4 36  1  0
  5 37  1  0
  5 38  1  0
  7 39  1  0
  7 40  1  0
  8 41  1  0
  8 42  1  0
 13 43  1  0
 13 44  1  0
 15 45  1  0
 23 46  1  0
 24 47  1  0
 26 48  1  0
 27 49  1  0
 27 50  1  0
 28 51  1  0
 30 52  1  0
 30 53  1  0
 30 54  1  0
M  END
>  <Energy>  (212) 
15.145335817588844

>  <compound_id>  (212) 
2441

>  <target_id>  (212) 
1

>  <reference_id>  (212) 
167

>  <inspiration_ids>  (212) 
[167, 59]

>  <energy_score>  (212) 
-108.12592216064098

>  <distance_score>  (212) 
1.5015102520348143

>  <path>  (212) 
/opt/xchem-fragalysis-2/maxwin/BulkDock/SCRATCH/505736/C2441-P167/C2441-P167.minimised.mol

>  <scratch_subdir>  (212) 
/opt/xchem-fragalysis-2/maxwin/BulkDock/SCRATCH/505736/C2441-P167

>  <fragmenstein_runtime>  (212) 
3.757338047027588

>  <fragmenstein_outcome>  (212) 
too moved

>  <fragmenstein_mode>  (212) 
expansion

>  <fragmenstein_error>  (212) 


$$$$
C2441-P59
     RDKit          3D

 54 58  0  0  0  0  0  0  0  0999 V2000
   -0.9816    0.0622   29.8291 C   0  0  0  0  0  0  0  0  0  0  0  0
   -0.8624   -0.3813   31.1723 O   0  0  0  0  0  0  0  0  0  0  0  0
   -1.8527   -1.3278   31.5886 C   0  0  0  0  0  0  0  0  0  0  0  0
   -1.8632   -2.6094   30.7752 C   0  0  0  0  0  0  0  0  0  0  0  0
   -0.5860   -3.4364   30.9183 C   0  0  0  0  0  0  0  0  0  0  0  0
    0.0202   -3.6901   32.3731 C   0  0  0  0  0  0  0  0  0  0  0  0
    1.4794   -4.1633   32.1090 C   0  0  0  0  0  0  0  0  0  0  0  0
    1.5124   -5.4551   31.2470 C   0  0  0  0  0  0  0  0  0  0  0  0
    0.4392   -6.4221   31.6135 C   0  0  0  0  0  0  0  0  0  0  0  0
    0.0448   -7.5134   30.9918 N   0  0  0  0  0  0  0  0  0  0  0  0
   -0.9161   -8.1180   31.7767 N   0  0  0  0  0  0  0  0  0  0  0  0
   -1.0859   -7.3763   32.8458 C   0  0  0  0  0  0  0  0  0  0  0  0
   -1.7699   -7.6897   33.9633 N   0  0  0  0  0  0  0  0  0  0  0  0
   -0.3916   -6.2116   32.6773 N   0  0  0  0  0  0  0  0  0  0  0  0
   -0.6084   -4.8978   33.2555 C   0  0  0  0  0  0  0  0  0  0  0  0
   -0.3170   -4.7789   35.0753 S   0  0  0  0  0  0  0  0  0  0  0  0
    0.5425   -6.1801   35.6693 C   0  0  0  0  0  0  0  0  0  0  0  0
    1.4531   -6.7574   34.9579 N   0  0  0  0  0  0  0  0  0  0  0  0
    2.1378   -7.8379   35.5059 C   0  0  0  0  0  0  0  0  0  0  0  0
    2.9058   -8.5154   34.8322 O   0  0  0  0  0  0  0  0  0  0  0  0
    1.8570   -8.0833   36.9016 C   0  0  0  0  0  0  0  0  0  0  0  0
    2.7015   -9.1825   37.8803 S   0  0  0  0  0  0  0  0  0  0  0  0
    1.7205   -8.7974   39.2397 C   0  0  0  0  0  0  0  0  0  0  0  0
    0.7763   -7.8323   38.9429 C   0  0  0  0  0  0  0  0  0  0  0  0
    0.8735   -7.4304   37.5898 C   0  0  0  0  0  0  0  0  0  0  0  0
    0.1393   -6.5050   36.9467 N   0  0  0  0  0  0  0  0  0  0  0  0
   -0.0955   -2.3141   33.1183 C   0  0  0  0  0  0  0  0  0  0  0  0
   -1.5564   -1.7736   33.0351 C   0  0  0  0  0  0  0  0  0  0  0  0
   -1.7944   -0.7043   33.9498 O   0  0  0  0  0  0  0  0  0  0  0  0
   -3.1428   -0.6900   34.4191 C   0  0  0  0  0  0  0  0  0  0  0  0
   -2.0175    0.3171   29.5878 H   0  0  0  0  0  0  0  0  0  0  0  0
   -0.3600    0.9531   29.7057 H   0  0  0  0  0  0  0  0  0  0  0  0
   -0.6136   -0.7038   29.1410 H   0  0  0  0  0  0  0  0  0  0  0  0
   -2.8295   -0.8345   31.5330 H   0  0  0  0  0  0  0  0  0  0  0  0
   -2.7052   -3.2069   31.1267 H   0  0  0  0  0  0  0  0  0  0  0  0
   -2.0413   -2.4072   29.7139 H   0  0  0  0  0  0  0  0  0  0  0  0
    0.1800   -2.9170   30.3246 H   0  0  0  0  0  0  0  0  0  0  0  0
   -0.7583   -4.3869   30.4081 H   0  0  0  0  0  0  0  0  0  0  0  0
    2.0640   -3.3819   31.6078 H   0  0  0  0  0  0  0  0  0  0  0  0
    1.9882   -4.3504   33.0632 H   0  0  0  0  0  0  0  0  0  0  0  0
    2.4910   -5.9284   31.3696 H   0  0  0  0  0  0  0  0  0  0  0  0
    1.4200   -5.2002   30.1851 H   0  0  0  0  0  0  0  0  0  0  0  0
   -1.4423   -7.3148   34.8421 H   0  0  0  0  0  0  0  0  0  0  0  0
   -1.8558   -8.7119   34.0715 H   0  0  0  0  0  0  0  0  0  0  0  0
   -1.6761   -4.7552   33.1559 H   0  0  0  0  0  0  0  0  0  0  0  0
    1.8895   -9.2949   40.1858 H   0  0  0  0  0  0  0  0  0  0  0  0
    0.0712   -7.4507   39.6711 H   0  0  0  0  0  0  0  0  0  0  0  0
   -0.4968   -5.8682   37.4161 H   0  0  0  0  0  0  0  0  0  0  0  0
    0.2312   -2.3596   34.1601 H   0  0  0  0  0  0  0  0  0  0  0  0
    0.5991   -1.5936   32.6675 H   0  0  0  0  0  0  0  0  0  0  0  0
   -2.2317   -2.5899   33.3122 H   0  0  0  0  0  0  0  0  0  0  0  0
   -3.3486   -1.5873   35.0109 H   0  0  0  0  0  0  0  0  0  0  0  0
   -3.2678    0.1844   35.0634 H   0  0  0  0  0  0  0  0  0  0  0  0
   -3.8495   -0.6129   33.5880 H   0  0  0  0  0  0  0  0  0  0  0  0
  1  2  1  0
  2  3  1  0
  3  4  1  0
  4  5  1  0
  5  6  1  0
  6  7  1  0
  7  8  1  0
  8  9  1  0
  9 10  2  0
 10 11  1  0
 11 12  2  0
 12 13  1  0
 12 14  1  0
 14 15  1  0
 15 16  1  0
 16 17  1  0
 17 18  2  0
 18 19  1  0
 19 20  2  0
 19 21  1  0
 21 22  1  0
 22 23  1  0
 23 24  2  0
 24 25  1  0
 25 26  1  0
  6 27  1  0
 27 28  1  0
 28 29  1  0
 29 30  1  0
 28  3  1  0
 15  6  1  0
 26 17  1  0
 14  9  1  0
 25 21  2  0
  1 31  1  0
  1 32  1  0
  1 33  1  0
  3 34  1  0
  4 35  1  0
  4 36  1  0
  5 37  1  0
  5 38  1  0
  7 39  1  0
  7 40  1  0
  8 41  1  0
  8 42  1  0
 13 43  1  0
 13 44  1  0
 15 45  1  0
 23 46  1  0
 24 47  1  0
 26 48  1  0
 27 49  1  0
 27 50  1  0
 28 51  1  0
 30 52  1  0
 30 53  1  0
 30 54  1  0
M  END
>  <Energy>  (213) 
6.9134491544753978

>  <compound_id>  (213) 
2441

>  <target_id>  (213) 
1

>  <reference_id>  (213) 
59

>  <inspiration_ids>  (213) 
[167, 59]

>  <energy_score>  (213) 
-116.35780882375394

>  <distance_score>  (213) 
1.4231170329525518

>  <path>  (213) 
/opt/xchem-fragalysis-2/maxwin/BulkDock/SCRATCH/505736/C2441-P59/C2441-P59.minimised.mol

>  <scratch_subdir>  (213) 
/opt/xchem-fragalysis-2/maxwin/BulkDock/SCRATCH/505736/C2441-P59

>  <fragmenstein_runtime>  (213) 
2.6343398094177246

>  <fragmenstein_outcome>  (213) 
too moved

>  <fragmenstein_mode>  (213) 
expansion

>  <fragmenstein_error>  (213) 


$$$$
C2443-P167
     RDKit          3D

 53 57  0  0  0  0  0  0  0  0999 V2000
    5.8712   -0.6903   33.7847 C   0  0  0  0  0  0  0  0  0  0  0  0
    4.6971   -1.3619   34.2593 N   0  0  0  0  0  0  0  0  0  0  0  0
    3.3368   -1.6269   33.5615 C   0  0  0  0  0  0  0  0  0  0  0  0
    2.9380   -1.2724   32.5240 O   0  0  0  0  0  0  0  0  0  0  0  0
    2.5106   -2.5027   34.5303 C   0  0  0  0  0  0  0  0  0  0  0  0
    3.0670   -3.9202   34.6240 C   0  0  0  0  0  0  0  0  0  0  0  0
    2.8343   -4.7064   33.3395 C   0  0  0  0  0  0  0  0  0  0  0  0
    1.3595   -4.7849   32.8261 C   0  0  0  0  0  0  0  0  0  0  0  0
    1.4912   -5.1252   31.3036 C   0  0  0  0  0  0  0  0  0  0  0  0
    0.1671   -5.4430   30.6356 C   0  0  0  0  0  0  0  0  0  0  0  0
   -0.5014   -6.5396   31.3581 C   0  0  0  0  0  0  0  0  0  0  0  0
   -1.1596   -7.5619   30.8593 N   0  0  0  0  0  0  0  0  0  0  0  0
   -1.5675   -8.3407   31.9122 N   0  0  0  0  0  0  0  0  0  0  0  0
   -1.1622   -7.7751   33.0262 C   0  0  0  0  0  0  0  0  0  0  0  0
   -1.3097   -8.2240   34.2851 N   0  0  0  0  0  0  0  0  0  0  0  0
   -0.4543   -6.6370   32.7238 N   0  0  0  0  0  0  0  0  0  0  0  0
    0.5755   -5.9795   33.5392 C   0  0  0  0  0  0  0  0  0  0  0  0
   -0.0172   -5.6176   35.2468 S   0  0  0  0  0  0  0  0  0  0  0  0
    0.8365   -6.8934   36.0995 C   0  0  0  0  0  0  0  0  0  0  0  0
    1.9902   -7.2380   35.6238 N   0  0  0  0  0  0  0  0  0  0  0  0
    2.6839   -8.2548   36.2380 C   0  0  0  0  0  0  0  0  0  0  0  0
    3.5736   -8.8540   35.6450 O   0  0  0  0  0  0  0  0  0  0  0  0
    2.2184   -8.5414   37.5695 C   0  0  0  0  0  0  0  0  0  0  0  0
    3.0710   -9.4482   38.7167 S   0  0  0  0  0  0  0  0  0  0  0  0
    1.7496   -9.3637   39.8151 C   0  0  0  0  0  0  0  0  0  0  0  0
    0.6930   -8.6287   39.3106 C   0  0  0  0  0  0  0  0  0  0  0  0
    0.9921   -8.1339   38.0243 C   0  0  0  0  0  0  0  0  0  0  0  0
    0.2240   -7.3628   37.2319 N   0  0  0  0  0  0  0  0  0  0  0  0
    0.6734   -3.4008   32.9398 C   0  0  0  0  0  0  0  0  0  0  0  0
    1.0285   -2.5419   34.1579 C   0  0  0  0  0  0  0  0  0  0  0  0
    6.0782    0.1554   34.4439 H   0  0  0  0  0  0  0  0  0  0  0  0
    5.7053   -0.3409   32.7635 H   0  0  0  0  0  0  0  0  0  0  0  0
    6.7075   -1.3921   33.8119 H   0  0  0  0  0  0  0  0  0  0  0  0
    4.6802   -1.7529   35.1938 H   0  0  0  0  0  0  0  0  0  0  0  0
    2.5804   -2.0256   35.5174 H   0  0  0  0  0  0  0  0  0  0  0  0
    4.1437   -3.9059   34.8295 H   0  0  0  0  0  0  0  0  0  0  0  0
    2.6138   -4.4348   35.4755 H   0  0  0  0  0  0  0  0  0  0  0  0
    3.2430   -5.7157   33.4680 H   0  0  0  0  0  0  0  0  0  0  0  0
    3.4600   -4.2448   32.5627 H   0  0  0  0  0  0  0  0  0  0  0  0
    1.9755   -4.3017   30.7626 H   0  0  0  0  0  0  0  0  0  0  0  0
    2.1563   -5.9872   31.1899 H   0  0  0  0  0  0  0  0  0  0  0  0
    0.3527   -5.7331   29.5993 H   0  0  0  0  0  0  0  0  0  0  0  0
   -0.4793   -4.5593   30.6152 H   0  0  0  0  0  0  0  0  0  0  0  0
   -1.7684   -9.1448   34.3470 H   0  0  0  0  0  0  0  0  0  0  0  0
   -1.7889   -7.6152   34.9490 H   0  0  0  0  0  0  0  0  0  0  0  0
    1.3117   -6.7885   33.5728 H   0  0  0  0  0  0  0  0  0  0  0  0
    1.8004   -9.8838   40.7620 H   0  0  0  0  0  0  0  0  0  0  0  0
   -0.2388   -8.4887   39.8414 H   0  0  0  0  0  0  0  0  0  0  0  0
   -0.7741   -7.2112   37.3721 H   0  0  0  0  0  0  0  0  0  0  0  0
   -0.4171   -3.5163   32.8942 H   0  0  0  0  0  0  0  0  0  0  0  0
    0.9262   -2.8031   32.0544 H   0  0  0  0  0  0  0  0  0  0  0  0
    0.4598   -2.8845   35.0278 H   0  0  0  0  0  0  0  0  0  0  0  0
    0.6688   -1.5208   33.9735 H   0  0  0  0  0  0  0  0  0  0  0  0
  1  2  1  0
  2  3  1  0
  3  4  2  0
  3  5  1  0
  5  6  1  0
  6  7  1  0
  7  8  1  0
  8  9  1  0
  9 10  1  0
 10 11  1  0
 11 12  2  0
 12 13  1  0
 13 14  2  0
 14 15  1  0
 14 16  1  0
 16 17  1  0
 17 18  1  0
 18 19  1  0
 19 20  2  0
 20 21  1  0
 21 22  2  0
 21 23  1  0
 23 24  1  0
 24 25  1  0
 25 26  2  0
 26 27  1  0
 27 28  1  0
  8 29  1  0
 29 30  1  0
 30  5  1  0
 17  8  1  0
 28 19  1  0
 16 11  1  0
 27 23  2  0
  1 31  1  0
  1 32  1  0
  1 33  1  0
  2 34  1  0
  5 35  1  0
  6 36  1  0
  6 37  1  0
  7 38  1  0
  7 39  1  0
  9 40  1  0
  9 41  1  0
 10 42  1  0
 10 43  1  0
 15 44  1  0
 15 45  1  0
 17 46  1  0
 25 47  1  0
 26 48  1  0
 28 49  1  0
 29 50  1  0
 29 51  1  0
 30 52  1  0
 30 53  1  0
M  END
>  <Energy>  (214) 
-45.342696402995003

>  <compound_id>  (214) 
2443

>  <target_id>  (214) 
1

>  <reference_id>  (214) 
167

>  <inspiration_ids>  (214) 
[167, 128]

>  <energy_score>  (214) 
-84.55922184296794

>  <distance_score>  (214) 
1.2949563342173367

>  <path>  (214) 
/opt/xchem-fragalysis-2/maxwin/BulkDock/SCRATCH/505736/C2443-P167/C2443-P167.minimised.mol

>  <scratch_subdir>  (214) 
/opt/xchem-fragalysis-2/maxwin/BulkDock/SCRATCH/505736/C2443-P167

>  <fragmenstein_runtime>  (214) 
3.556766986846924

>  <fragmenstein_outcome>  (214) 
too moved

>  <fragmenstein_mode>  (214) 
expansion

>  <fragmenstein_error>  (214) 


$$$$
C2443-P128
     RDKit          3D

 53 57  0  0  0  0  0  0  0  0999 V2000
    4.8001    0.5147   34.9936 C   0  0  0  0  0  0  0  0  0  0  0  0
    4.3890   -0.8088   34.6255 N   0  0  0  0  0  0  0  0  0  0  0  0
    3.9414   -1.3797   33.2534 C   0  0  0  0  0  0  0  0  0  0  0  0
    3.9130   -0.8795   32.1998 O   0  0  0  0  0  0  0  0  0  0  0  0
    3.5155   -2.8410   33.5072 C   0  0  0  0  0  0  0  0  0  0  0  0
    3.4327   -3.6327   32.1912 C   0  0  0  0  0  0  0  0  0  0  0  0
    2.5443   -4.8632   32.3545 C   0  0  0  0  0  0  0  0  0  0  0  0
    1.0408   -4.5212   32.6260 C   0  0  0  0  0  0  0  0  0  0  0  0
    0.3176   -4.2928   31.2642 C   0  0  0  0  0  0  0  0  0  0  0  0
    0.1455   -5.5615   30.4408 C   0  0  0  0  0  0  0  0  0  0  0  0
   -0.5567   -6.5822   31.2381 C   0  0  0  0  0  0  0  0  0  0  0  0
   -1.2478   -7.6076   30.7996 N   0  0  0  0  0  0  0  0  0  0  0  0
   -1.7523   -8.2531   31.8946 N   0  0  0  0  0  0  0  0  0  0  0  0
   -1.3598   -7.6192   32.9775 C   0  0  0  0  0  0  0  0  0  0  0  0
   -1.6704   -7.9273   34.2501 N   0  0  0  0  0  0  0  0  0  0  0  0
   -0.5686   -6.5606   32.6113 N   0  0  0  0  0  0  0  0  0  0  0  0
    0.3872   -5.7700   33.4006 C   0  0  0  0  0  0  0  0  0  0  0  0
   -0.1774   -5.4057   35.1197 S   0  0  0  0  0  0  0  0  0  0  0  0
    0.8417   -6.4915   36.0470 C   0  0  0  0  0  0  0  0  0  0  0  0
    1.8923   -6.9771   35.4744 N   0  0  0  0  0  0  0  0  0  0  0  0
    2.6887   -7.8659   36.1626 C   0  0  0  0  0  0  0  0  0  0  0  0
    3.5537   -8.5059   35.5745 O   0  0  0  0  0  0  0  0  0  0  0  0
    2.3573   -7.9806   37.5636 C   0  0  0  0  0  0  0  0  0  0  0  0
    3.2939   -8.8002   38.7168 S   0  0  0  0  0  0  0  0  0  0  0  0
    2.1146   -8.5149   39.9360 C   0  0  0  0  0  0  0  0  0  0  0  0
    1.0509   -7.7644   39.4713 C   0  0  0  0  0  0  0  0  0  0  0  0
    1.2166   -7.4473   38.1049 C   0  0  0  0  0  0  0  0  0  0  0  0
    0.4002   -6.7173   37.3231 N   0  0  0  0  0  0  0  0  0  0  0  0
    0.9952   -3.1473   33.3660 C   0  0  0  0  0  0  0  0  0  0  0  0
    2.1921   -2.9124   34.2920 C   0  0  0  0  0  0  0  0  0  0  0  0
    3.9911    0.9831   35.5585 H   0  0  0  0  0  0  0  0  0  0  0  0
    5.0070    1.0960   34.0924 H   0  0  0  0  0  0  0  0  0  0  0  0
    5.6937    0.4432   35.6169 H   0  0  0  0  0  0  0  0  0  0  0  0
    4.2060   -1.4904   35.3518 H   0  0  0  0  0  0  0  0  0  0  0  0
    4.3035   -3.2991   34.1213 H   0  0  0  0  0  0  0  0  0  0  0  0
    3.0563   -3.0177   31.3658 H   0  0  0  0  0  0  0  0  0  0  0  0
    4.4434   -3.9431   31.8981 H   0  0  0  0  0  0  0  0  0  0  0  0
    2.9613   -5.4528   33.1810 H   0  0  0  0  0  0  0  0  0  0  0  0
    2.6330   -5.4820   31.4612 H   0  0  0  0  0  0  0  0  0  0  0  0
   -0.6757   -3.8630   31.4602 H   0  0  0  0  0  0  0  0  0  0  0  0
    0.8559   -3.5536   30.6580 H   0  0  0  0  0  0  0  0  0  0  0  0
    1.1027   -5.9554   30.0888 H   0  0  0  0  0  0  0  0  0  0  0  0
   -0.4363   -5.3147   29.5496 H   0  0  0  0  0  0  0  0  0  0  0  0
   -1.0340   -7.6876   34.9937 H   0  0  0  0  0  0  0  0  0  0  0  0
   -1.9252   -8.9182   34.3811 H   0  0  0  0  0  0  0  0  0  0  0  0
    1.1853   -6.5118   33.4631 H   0  0  0  0  0  0  0  0  0  0  0  0
    2.2642   -8.9036   40.9340 H   0  0  0  0  0  0  0  0  0  0  0  0
    0.2132   -7.4743   40.0929 H   0  0  0  0  0  0  0  0  0  0  0  0
   -0.4494   -6.2606   37.6375 H   0  0  0  0  0  0  0  0  0  0  0  0
    0.0526   -3.0124   33.9060 H   0  0  0  0  0  0  0  0  0  0  0  0
    0.9959   -2.3282   32.6320 H   0  0  0  0  0  0  0  0  0  0  0  0
    2.2614   -3.7211   35.0276 H   0  0  0  0  0  0  0  0  0  0  0  0
    2.0154   -1.9937   34.8626 H   0  0  0  0  0  0  0  0  0  0  0  0
  1  2  1  0
  2  3  1  0
  3  4  2  0
  3  5  1  0
  5  6  1  0
  6  7  1  0
  7  8  1  0
  8  9  1  0
  9 10  1  0
 10 11  1  0
 11 12  2  0
 12 13  1  0
 13 14  2  0
 14 15  1  0
 14 16  1  0
 16 17  1  0
 17 18  1  0
 18 19  1  0
 19 20  2  0
 20 21  1  0
 21 22  2  0
 21 23  1  0
 23 24  1  0
 24 25  1  0
 25 26  2  0
 26 27  1  0
 27 28  1  0
  8 29  1  0
 29 30  1  0
 30  5  1  0
 17  8  1  0
 28 19  1  0
 16 11  1  0
 27 23  2  0
  1 31  1  0
  1 32  1  0
  1 33  1  0
  2 34  1  0
  5 35  1  0
  6 36  1  0
  6 37  1  0
  7 38  1  0
  7 39  1  0
  9 40  1  0
  9 41  1  0
 10 42  1  0
 10 43  1  0
 15 44  1  0
 15 45  1  0
 17 46  1  0
 25 47  1  0
 26 48  1  0
 28 49  1  0
 29 50  1  0
 29 51  1  0
 30 52  1  0
 30 53  1  0
M  END
>  <Energy>  (215) 
-38.654913095316935

>  <compound_id>  (215) 
2443

>  <target_id>  (215) 
1

>  <reference_id>  (215) 
128

>  <inspiration_ids>  (215) 
[167, 128]

>  <energy_score>  (215) 
-77.87143853529074

>  <distance_score>  (215) 
0.9371752044167972

>  <path>  (215) 
/opt/xchem-fragalysis-2/maxwin/BulkDock/SCRATCH/505736/C2443-P128/C2443-P128.minimised.mol

>  <scratch_subdir>  (215) 
/opt/xchem-fragalysis-2/maxwin/BulkDock/SCRATCH/505736/C2443-P128

>  <fragmenstein_runtime>  (215) 
3.2432825565338135

>  <fragmenstein_outcome>  (215) 
acceptable

>  <fragmenstein_mode>  (215) 
expansion

>  <fragmenstein_error>  (215) 


$$$$
C2444-P167
     RDKit          3D

 58 63  0  0  0  0  0  0  0  0999 V2000
    1.5739   -3.4957   31.1938 O   0  0  0  0  0  0  0  0  0  0  0  0
    1.0231   -3.8071   32.2209 C   0  0  0  0  0  0  0  0  0  0  0  0
    0.7869   -5.3133   32.3715 C   0  0  0  0  0  0  0  0  0  0  0  0
    0.9909   -5.9929   31.0653 C   0  0  0  0  0  0  0  0  0  0  0  0
    0.2935   -7.0645   30.6830 C   0  0  0  0  0  0  0  0  0  0  0  0
   -0.5993   -7.6376   31.5881 C   0  0  0  0  0  0  0  0  0  0  0  0
   -1.4780   -8.5906   31.4285 N   0  0  0  0  0  0  0  0  0  0  0  0
   -2.0462   -8.7989   32.6454 N   0  0  0  0  0  0  0  0  0  0  0  0
   -1.4792   -8.0013   33.5211 C   0  0  0  0  0  0  0  0  0  0  0  0
   -0.5925   -7.1692   32.8926 N   0  0  0  0  0  0  0  0  0  0  0  0
    0.1023   -6.0106   33.3232 C   0  0  0  0  0  0  0  0  0  0  0  0
   -0.1425   -5.5432   34.9856 S   0  0  0  0  0  0  0  0  0  0  0  0
    0.7476   -6.8132   35.8204 C   0  0  0  0  0  0  0  0  0  0  0  0
    1.8947   -7.1456   35.3169 N   0  0  0  0  0  0  0  0  0  0  0  0
    2.6474   -8.1028   35.9714 C   0  0  0  0  0  0  0  0  0  0  0  0
    3.5811   -8.6626   35.4094 O   0  0  0  0  0  0  0  0  0  0  0  0
    2.1870   -8.3984   37.3056 C   0  0  0  0  0  0  0  0  0  0  0  0
    3.0679   -9.2657   38.4650 S   0  0  0  0  0  0  0  0  0  0  0  0
    1.7302   -9.2495   39.5472 C   0  0  0  0  0  0  0  0  0  0  0  0
    0.6509   -8.5545   39.0345 C   0  0  0  0  0  0  0  0  0  0  0  0
    0.9441   -8.0404   37.7538 C   0  0  0  0  0  0  0  0  0  0  0  0
    0.1540   -7.2963   36.9587 N   0  0  0  0  0  0  0  0  0  0  0  0
    0.4788   -3.0090   33.2457 N   0  0  0  0  0  0  0  0  0  0  0  0
    1.5524   -2.7242   34.3374 C   0  0  0  0  0  0  0  0  0  0  0  0
    2.7937   -1.8026   34.0306 C   0  0  0  0  0  0  0  0  0  0  0  0
    2.4249   -0.4165   33.4609 C   0  0  0  0  0  0  0  0  0  0  0  0
    1.3086   -0.7231   32.4957 C   0  0  0  0  0  0  0  0  0  0  0  0
    0.7274    0.2530   31.4851 C   0  0  0  0  0  0  0  0  0  0  0  0
   -0.6390    0.5435   31.4734 C   0  0  0  0  0  0  0  0  0  0  0  0
   -1.2969    0.6923   30.2548 C   0  0  0  0  0  0  0  0  0  0  0  0
   -0.5922    0.6861   29.0514 C   0  0  0  0  0  0  0  0  0  0  0  0
   -1.3356    0.5445   27.7590 C   0  0  0  0  0  0  0  0  0  0  0  0
   -1.7864   -0.7987   27.6908 O   0  0  0  0  0  0  0  0  0  0  0  0
    0.8013    0.6527   29.0864 C   0  0  0  0  0  0  0  0  0  0  0  0
    1.4603    0.4487   30.2987 C   0  0  0  0  0  0  0  0  0  0  0  0
    0.3062   -1.5437   33.3423 C   0  0  0  0  0  0  0  0  0  0  0  0
    1.7163   -5.5688   30.3736 H   0  0  0  0  0  0  0  0  0  0  0  0
    0.4379   -7.5480   29.7317 H   0  0  0  0  0  0  0  0  0  0  0  0
   -1.7232   -7.9751   34.5739 H   0  0  0  0  0  0  0  0  0  0  0  0
    1.7906   -9.7742   40.4912 H   0  0  0  0  0  0  0  0  0  0  0  0
   -0.2925   -8.4576   39.5550 H   0  0  0  0  0  0  0  0  0  0  0  0
   -0.8438   -7.1531   37.1247 H   0  0  0  0  0  0  0  0  0  0  0  0
    1.0759   -2.4645   35.2979 H   0  0  0  0  0  0  0  0  0  0  0  0
    2.0105   -3.7027   34.5409 H   0  0  0  0  0  0  0  0  0  0  0  0
    3.4283   -2.3216   33.2999 H   0  0  0  0  0  0  0  0  0  0  0  0
    3.3944   -1.6840   34.9393 H   0  0  0  0  0  0  0  0  0  0  0  0
    2.0888    0.2579   34.2566 H   0  0  0  0  0  0  0  0  0  0  0  0
    3.2881    0.0461   32.9716 H   0  0  0  0  0  0  0  0  0  0  0  0
    1.7808   -1.4209   31.8006 H   0  0  0  0  0  0  0  0  0  0  0  0
   -1.2476    0.4630   32.3685 H   0  0  0  0  0  0  0  0  0  0  0  0
   -2.3830    0.7100   30.2302 H   0  0  0  0  0  0  0  0  0  0  0  0
   -0.6819    0.7655   26.9142 H   0  0  0  0  0  0  0  0  0  0  0  0
   -2.1888    1.2270   27.7105 H   0  0  0  0  0  0  0  0  0  0  0  0
   -1.7259   -1.0925   26.7583 H   0  0  0  0  0  0  0  0  0  0  0  0
    1.3746    0.6463   28.1633 H   0  0  0  0  0  0  0  0  0  0  0  0
    2.5285    0.2399   30.2743 H   0  0  0  0  0  0  0  0  0  0  0  0
    0.0328   -1.1133   34.3222 H   0  0  0  0  0  0  0  0  0  0  0  0
   -0.6646   -1.4918   32.8338 H   0  0  0  0  0  0  0  0  0  0  0  0
  1  2  2  0
  2  3  1  0
  3  4  1  0
  4  5  2  0
  5  6  1  0
  6  7  2  0
  7  8  1  0
  8  9  2  0
  9 10  1  0
 10 11  1  0
 11 12  1  0
 12 13  1  0
 13 14  2  0
 14 15  1  0
 15 16  2  0
 15 17  1  0
 17 18  1  0
 18 19  1  0
 19 20  2  0
 20 21  1  0
 21 22  1  0
  2 23  1  0
 23 24  1  0
 24 25  1  0
 25 26  1  0
 26 27  1  0
 27 28  1  0
 28 29  2  0
 29 30  1  0
 30 31  2  0
 31 32  1  0
 32 33  1  0
 31 34  1  0
 34 35  2  0
 27 36  1  0
 11  3  2  0
 22 13  1  0
 36 23  1  0
 10  6  1  0
 21 17  2  0
 35 28  1  0
  4 37  1  0
  5 38  1  0
  9 39  1  0
 19 40  1  0
 20 41  1  0
 22 42  1  0
 24 43  1  0
 24 44  1  0
 25 45  1  0
 25 46  1  0
 26 47  1  0
 26 48  1  0
 27 49  1  0
 29 50  1  0
 30 51  1  0
 32 52  1  0
 32 53  1  0
 33 54  1  0
 34 55  1  0
 35 56  1  0
 36 57  1  0
 36 58  1  0
M  END
>  <Energy>  (216) 
135.77481796953381

>  <compound_id>  (216) 
2444

>  <target_id>  (216) 
1

>  <reference_id>  (216) 
167

>  <inspiration_ids>  (216) 
[167, 130]

>  <energy_score>  (216) 
55.70350080178008

>  <distance_score>  (216) 
1.8327707686495145

>  <path>  (216) 
/opt/xchem-fragalysis-2/maxwin/BulkDock/SCRATCH/505736/C2444-P167/C2444-P167.minimised.mol

>  <scratch_subdir>  (216) 
/opt/xchem-fragalysis-2/maxwin/BulkDock/SCRATCH/505736/C2444-P167

>  <fragmenstein_runtime>  (216) 
8.9945387840271

>  <fragmenstein_outcome>  (216) 
too moved

>  <fragmenstein_mode>  (216) 
expansion

>  <fragmenstein_error>  (216) 


$$$$
C2444-P130
     RDKit          3D

 58 63  0  0  0  0  0  0  0  0999 V2000
    1.2902   -3.5331   29.7718 O   0  0  0  0  0  0  0  0  0  0  0  0
    0.8879   -3.5433   30.9079 C   0  0  0  0  0  0  0  0  0  0  0  0
    0.6882   -4.9440   31.5084 C   0  0  0  0  0  0  0  0  0  0  0  0
    0.8175   -6.0018   30.4711 C   0  0  0  0  0  0  0  0  0  0  0  0
    0.1906   -7.1817   30.5375 C   0  0  0  0  0  0  0  0  0  0  0  0
   -0.5924   -7.4573   31.6616 C   0  0  0  0  0  0  0  0  0  0  0  0
   -1.4238   -8.4338   31.9166 N   0  0  0  0  0  0  0  0  0  0  0  0
   -1.8665   -8.2554   33.1944 N   0  0  0  0  0  0  0  0  0  0  0  0
   -1.2873   -7.1882   33.6860 C   0  0  0  0  0  0  0  0  0  0  0  0
   -0.5108   -6.5841   32.7317 N   0  0  0  0  0  0  0  0  0  0  0  0
    0.1493   -5.3289   32.7009 C   0  0  0  0  0  0  0  0  0  0  0  0
    0.1198   -4.4051   34.1899 S   0  0  0  0  0  0  0  0  0  0  0  0
    0.9455   -5.5418   35.2774 C   0  0  0  0  0  0  0  0  0  0  0  0
    1.7844   -6.3698   34.7412 N   0  0  0  0  0  0  0  0  0  0  0  0
    2.3893   -7.3296   35.5303 C   0  0  0  0  0  0  0  0  0  0  0  0
    3.0606   -8.2197   35.0185 O   0  0  0  0  0  0  0  0  0  0  0  0
    2.0983   -7.1980   36.9396 C   0  0  0  0  0  0  0  0  0  0  0  0
    2.8227   -8.1201   38.1647 S   0  0  0  0  0  0  0  0  0  0  0  0
    1.8364   -7.3856   39.3650 C   0  0  0  0  0  0  0  0  0  0  0  0
    1.0150   -6.4068   38.8382 C   0  0  0  0  0  0  0  0  0  0  0  0
    1.1905   -6.3002   37.4390 C   0  0  0  0  0  0  0  0  0  0  0  0
    0.5713   -5.4542   36.5940 N   0  0  0  0  0  0  0  0  0  0  0  0
    0.4772   -2.4850   31.7433 N   0  0  0  0  0  0  0  0  0  0  0  0
    1.6835   -1.9462   32.5623 C   0  0  0  0  0  0  0  0  0  0  0  0
    2.8763   -1.2278   31.8476 C   0  0  0  0  0  0  0  0  0  0  0  0
    2.4330   -0.0013   31.0418 C   0  0  0  0  0  0  0  0  0  0  0  0
    1.1880   -0.4718   30.3276 C   0  0  0  0  0  0  0  0  0  0  0  0
    0.3810    0.3983   29.4042 C   0  0  0  0  0  0  0  0  0  0  0  0
   -0.4406   -0.2923   28.4912 C   0  0  0  0  0  0  0  0  0  0  0  0
   -1.3266    0.3776   27.6666 C   0  0  0  0  0  0  0  0  0  0  0  0
   -1.4043    1.7662   27.7107 C   0  0  0  0  0  0  0  0  0  0  0  0
   -2.4307    2.4660   26.8717 C   0  0  0  0  0  0  0  0  0  0  0  0
   -2.3569    1.9809   25.5347 O   0  0  0  0  0  0  0  0  0  0  0  0
   -0.5566    2.4658   28.5826 C   0  0  0  0  0  0  0  0  0  0  0  0
    0.3329    1.7878   29.4293 C   0  0  0  0  0  0  0  0  0  0  0  0
    0.3003   -1.0353   31.4613 C   0  0  0  0  0  0  0  0  0  0  0  0
    1.4473   -5.7911   29.6088 H   0  0  0  0  0  0  0  0  0  0  0  0
    0.2961   -7.9515   29.7849 H   0  0  0  0  0  0  0  0  0  0  0  0
   -1.4496   -6.8023   34.6798 H   0  0  0  0  0  0  0  0  0  0  0  0
    1.9169   -7.7054   40.3958 H   0  0  0  0  0  0  0  0  0  0  0  0
    0.3338   -5.8200   39.4420 H   0  0  0  0  0  0  0  0  0  0  0  0
   -0.0930   -4.7410   36.8742 H   0  0  0  0  0  0  0  0  0  0  0  0
    1.3480   -1.4045   33.4628 H   0  0  0  0  0  0  0  0  0  0  0  0
    2.1560   -2.8471   32.9789 H   0  0  0  0  0  0  0  0  0  0  0  0
    3.3628   -1.9433   31.1721 H   0  0  0  0  0  0  0  0  0  0  0  0
    3.6263   -0.9342   32.5905 H   0  0  0  0  0  0  0  0  0  0  0  0
    2.2205    0.8404   31.7113 H   0  0  0  0  0  0  0  0  0  0  0  0
    3.2141    0.3176   30.3440 H   0  0  0  0  0  0  0  0  0  0  0  0
    1.5423   -1.2715   29.6684 H   0  0  0  0  0  0  0  0  0  0  0  0
   -0.4113   -1.3812   28.4263 H   0  0  0  0  0  0  0  0  0  0  0  0
   -1.9524   -0.1939   26.9822 H   0  0  0  0  0  0  0  0  0  0  0  0
   -2.2671    3.5478   26.8513 H   0  0  0  0  0  0  0  0  0  0  0  0
   -3.4315    2.2633   27.2625 H   0  0  0  0  0  0  0  0  0  0  0  0
   -3.1974    2.2447   25.1105 H   0  0  0  0  0  0  0  0  0  0  0  0
   -0.6077    3.5531   28.6295 H   0  0  0  0  0  0  0  0  0  0  0  0
    0.9538    2.3607   30.1115 H   0  0  0  0  0  0  0  0  0  0  0  0
    0.1461   -0.3652   32.3264 H   0  0  0  0  0  0  0  0  0  0  0  0
   -0.7273   -1.0622   31.0641 H   0  0  0  0  0  0  0  0  0  0  0  0
  1  2  2  0
  2  3  1  0
  3  4  1  0
  4  5  2  0
  5  6  1  0
  6  7  2  0
  7  8  1  0
  8  9  2  0
  9 10  1  0
 10 11  1  0
 11 12  1  0
 12 13  1  0
 13 14  2  0
 14 15  1  0
 15 16  2  0
 15 17  1  0
 17 18  1  0
 18 19  1  0
 19 20  2  0
 20 21  1  0
 21 22  1  0
  2 23  1  0
 23 24  1  0
 24 25  1  0
 25 26  1  0
 26 27  1  0
 27 28  1  0
 28 29  2  0
 29 30  1  0
 30 31  2  0
 31 32  1  0
 32 33  1  0
 31 34  1  0
 34 35  2  0
 27 36  1  0
 11  3  2  0
 22 13  1  0
 36 23  1  0
 10  6  1  0
 21 17  2  0
 35 28  1  0
  4 37  1  0
  5 38  1  0
  9 39  1  0
 19 40  1  0
 20 41  1  0
 22 42  1  0
 24 43  1  0
 24 44  1  0
 25 45  1  0
 25 46  1  0
 26 47  1  0
 26 48  1  0
 27 49  1  0
 29 50  1  0
 30 51  1  0
 32 52  1  0
 32 53  1  0
 33 54  1  0
 34 55  1  0
 35 56  1  0
 36 57  1  0
 36 58  1  0
M  END
>  <Energy>  (217) 
107.22052087784097

>  <compound_id>  (217) 
2444

>  <target_id>  (217) 
1

>  <reference_id>  (217) 
130

>  <inspiration_ids>  (217) 
[167, 130]

>  <energy_score>  (217) 
27.149203710088102

>  <distance_score>  (217) 
2.2730566278976623

>  <path>  (217) 
/opt/xchem-fragalysis-2/maxwin/BulkDock/SCRATCH/505736/C2444-P130/C2444-P130.minimised.mol

>  <scratch_subdir>  (217) 
/opt/xchem-fragalysis-2/maxwin/BulkDock/SCRATCH/505736/C2444-P130

>  <fragmenstein_runtime>  (217) 
8.150026082992554

>  <fragmenstein_outcome>  (217) 
too moved

>  <fragmenstein_mode>  (217) 
expansion

>  <fragmenstein_error>  (217) 


$$$$
C2444-P167
     RDKit          3D

 58 63  0  0  0  0  0  0  0  0999 V2000
    0.9056   -3.4729   34.4209 O   0  0  0  0  0  0  0  0  0  0  0  0
    0.9755   -3.8082   33.2737 C   0  0  0  0  0  0  0  0  0  0  0  0
    0.8558   -5.2574   32.7804 C   0  0  0  0  0  0  0  0  0  0  0  0
    1.3633   -5.5381   31.4247 C   0  0  0  0  0  0  0  0  0  0  0  0
    0.7797   -6.4321   30.6195 C   0  0  0  0  0  0  0  0  0  0  0  0
   -0.2174   -7.2710   31.1500 C   0  0  0  0  0  0  0  0  0  0  0  0
   -0.9772   -8.1788   30.5867 N   0  0  0  0  0  0  0  0  0  0  0  0
   -1.7221   -8.7536   31.5774 N   0  0  0  0  0  0  0  0  0  0  0  0
   -1.4038   -8.1792   32.7180 C   0  0  0  0  0  0  0  0  0  0  0  0
   -0.4754   -7.1906   32.5145 N   0  0  0  0  0  0  0  0  0  0  0  0
    0.0542   -6.1882   33.3594 C   0  0  0  0  0  0  0  0  0  0  0  0
   -0.5153   -6.1192   34.9946 S   0  0  0  0  0  0  0  0  0  0  0  0
    0.5540   -7.2276   35.8287 C   0  0  0  0  0  0  0  0  0  0  0  0
    1.6929   -7.5068   35.2757 N   0  0  0  0  0  0  0  0  0  0  0  0
    2.5786   -8.3100   35.9683 C   0  0  0  0  0  0  0  0  0  0  0  0
    3.5481   -8.8012   35.4015 O   0  0  0  0  0  0  0  0  0  0  0  0
    2.2123   -8.5485   37.3442 C   0  0  0  0  0  0  0  0  0  0  0  0
    3.2158   -9.2721   38.5036 S   0  0  0  0  0  0  0  0  0  0  0  0
    1.9437   -9.2695   39.6630 C   0  0  0  0  0  0  0  0  0  0  0  0
    0.7865   -8.6976   39.1691 C   0  0  0  0  0  0  0  0  0  0  0  0
    0.9677   -8.2642   37.8386 C   0  0  0  0  0  0  0  0  0  0  0  0
    0.0750   -7.6584   37.0384 N   0  0  0  0  0  0  0  0  0  0  0  0
    1.0815   -3.0240   32.0785 N   0  0  0  0  0  0  0  0  0  0  0  0
   -0.3005   -2.7157   31.5314 C   0  0  0  0  0  0  0  0  0  0  0  0
   -0.2866   -2.7782   29.9946 C   0  0  0  0  0  0  0  0  0  0  0  0
    1.0489   -2.2474   29.4830 C   0  0  0  0  0  0  0  0  0  0  0  0
    1.4911   -1.0883   30.4008 C   0  0  0  0  0  0  0  0  0  0  0  0
    0.7565    0.1400   29.8771 C   0  0  0  0  0  0  0  0  0  0  0  0
    1.2760    0.7721   28.7334 C   0  0  0  0  0  0  0  0  0  0  0  0
    0.4550    1.5435   27.9165 C   0  0  0  0  0  0  0  0  0  0  0  0
   -0.8978    1.6765   28.2205 C   0  0  0  0  0  0  0  0  0  0  0  0
   -1.8574    2.2192   27.2069 C   0  0  0  0  0  0  0  0  0  0  0  0
   -2.1776    1.1902   26.2770 O   0  0  0  0  0  0  0  0  0  0  0  0
   -1.3734    1.1641   29.4239 C   0  0  0  0  0  0  0  0  0  0  0  0
   -0.5446    0.4474   30.2760 C   0  0  0  0  0  0  0  0  0  0  0  0
    1.2534   -1.5228   31.8854 C   0  0  0  0  0  0  0  0  0  0  0  0
    2.1927   -4.9374   31.0593 H   0  0  0  0  0  0  0  0  0  0  0  0
    1.1143   -6.5700   29.6016 H   0  0  0  0  0  0  0  0  0  0  0  0
   -1.8320   -8.4193   33.6819 H   0  0  0  0  0  0  0  0  0  0  0  0
    2.0992   -9.7094   40.6386 H   0  0  0  0  0  0  0  0  0  0  0  0
   -0.1337   -8.6300   39.7346 H   0  0  0  0  0  0  0  0  0  0  0  0
   -0.9205   -7.5466   37.2502 H   0  0  0  0  0  0  0  0  0  0  0  0
   -0.9411   -3.5643   31.8207 H   0  0  0  0  0  0  0  0  0  0  0  0
   -0.8826   -1.9058   31.9955 H   0  0  0  0  0  0  0  0  0  0  0  0
   -0.4145   -3.8091   29.6459 H   0  0  0  0  0  0  0  0  0  0  0  0
   -1.1347   -2.2155   29.5906 H   0  0  0  0  0  0  0  0  0  0  0  0
    1.8004   -3.0457   29.5301 H   0  0  0  0  0  0  0  0  0  0  0  0
    0.9731   -1.9726   28.4251 H   0  0  0  0  0  0  0  0  0  0  0  0
    2.5684   -0.9212   30.2655 H   0  0  0  0  0  0  0  0  0  0  0  0
    2.2917    0.5653   28.4004 H   0  0  0  0  0  0  0  0  0  0  0  0
    0.8528    1.9578   26.9938 H   0  0  0  0  0  0  0  0  0  0  0  0
   -2.7822    2.5714   27.6693 H   0  0  0  0  0  0  0  0  0  0  0  0
   -1.4192    3.0616   26.6620 H   0  0  0  0  0  0  0  0  0  0  0  0
   -1.9559    0.3252   26.6705 H   0  0  0  0  0  0  0  0  0  0  0  0
   -2.4233    1.2671   29.6712 H   0  0  0  0  0  0  0  0  0  0  0  0
   -0.9937    0.0293   31.1671 H   0  0  0  0  0  0  0  0  0  0  0  0
    0.6250   -0.8769   32.5199 H   0  0  0  0  0  0  0  0  0  0  0  0
    2.2273   -1.3601   32.3761 H   0  0  0  0  0  0  0  0  0  0  0  0
  1  2  2  0
  2  3  1  0
  3  4  1  0
  4  5  2  0
  5  6  1  0
  6  7  2  0
  7  8  1  0
  8  9  2  0
  9 10  1  0
 10 11  1  0
 11 12  1  0
 12 13  1  0
 13 14  2  0
 14 15  1  0
 15 16  2  0
 15 17  1  0
 17 18  1  0
 18 19  1  0
 19 20  2  0
 20 21  1  0
 21 22  1  0
  2 23  1  0
 23 24  1  0
 24 25  1  0
 25 26  1  0
 26 27  1  0
 27 28  1  0
 28 29  2  0
 29 30  1  0
 30 31  2  0
 31 32  1  0
 32 33  1  0
 31 34  1  0
 34 35  2  0
 27 36  1  0
 11  3  2  0
 22 13  1  0
 36 23  1  0
 10  6  1  0
 21 17  2  0
 35 28  1  0
  4 37  1  0
  5 38  1  0
  9 39  1  0
 19 40  1  0
 20 41  1  0
 22 42  1  0
 24 43  1  0
 24 44  1  0
 25 45  1  0
 25 46  1  0
 26 47  1  0
 26 48  1  0
 27 49  1  0
 29 50  1  0
 30 51  1  0
 32 52  1  0
 32 53  1  0
 33 54  1  0
 34 55  1  0
 35 56  1  0
 36 57  1  0
 36 58  1  0
M  END
>  <Energy>  (218) 
107.61950901463008

>  <compound_id>  (218) 
2444

>  <target_id>  (218) 
1

>  <reference_id>  (218) 
167

>  <inspiration_ids>  (218) 
[167, 131]

>  <energy_score>  (218) 
27.548191846878183

>  <distance_score>  (218) 
2.1054444484973693

>  <path>  (218) 
/opt/xchem-fragalysis-2/maxwin/BulkDock/SCRATCH/505736/C2444-P167/C2444-P167.minimised.mol

>  <scratch_subdir>  (218) 
/opt/xchem-fragalysis-2/maxwin/BulkDock/SCRATCH/505736/C2444-P167

>  <fragmenstein_runtime>  (218) 
6.2419753074646

>  <fragmenstein_outcome>  (218) 
too moved

>  <fragmenstein_mode>  (218) 
expansion

>  <fragmenstein_error>  (218) 


$$$$
C2444-P131
     RDKit          3D

 58 63  0  0  0  0  0  0  0  0999 V2000
   -0.9024   -2.6551   32.4216 O   0  0  0  0  0  0  0  0  0  0  0  0
    0.1612   -3.0514   32.8199 C   0  0  0  0  0  0  0  0  0  0  0  0
    0.4367   -4.4850   32.5067 C   0  0  0  0  0  0  0  0  0  0  0  0
    0.8241   -4.7456   31.1176 C   0  0  0  0  0  0  0  0  0  0  0  0
    0.5572   -5.9110   30.5160 C   0  0  0  0  0  0  0  0  0  0  0  0
   -0.1564   -6.9002   31.2242 C   0  0  0  0  0  0  0  0  0  0  0  0
   -0.7291   -8.0130   30.8257 N   0  0  0  0  0  0  0  0  0  0  0  0
   -1.3291   -8.5761   31.9182 N   0  0  0  0  0  0  0  0  0  0  0  0
   -1.0924   -7.8045   32.9578 C   0  0  0  0  0  0  0  0  0  0  0  0
   -0.3966   -6.6859   32.5786 N   0  0  0  0  0  0  0  0  0  0  0  0
   -0.0797   -5.4874   33.2554 C   0  0  0  0  0  0  0  0  0  0  0  0
   -0.5009   -5.2950   34.9322 S   0  0  0  0  0  0  0  0  0  0  0  0
    0.6531   -6.3414   35.7478 C   0  0  0  0  0  0  0  0  0  0  0  0
    1.5655   -6.9291   35.0424 N   0  0  0  0  0  0  0  0  0  0  0  0
    2.4836   -7.7403   35.6813 C   0  0  0  0  0  0  0  0  0  0  0  0
    3.2691   -8.4237   35.0317 O   0  0  0  0  0  0  0  0  0  0  0  0
    2.3984   -7.7099   37.1255 C   0  0  0  0  0  0  0  0  0  0  0  0
    3.5086   -8.4425   38.1803 S   0  0  0  0  0  0  0  0  0  0  0  0
    2.5839   -7.9729   39.5526 C   0  0  0  0  0  0  0  0  0  0  0  0
    1.4697   -7.2341   39.2040 C   0  0  0  0  0  0  0  0  0  0  0  0
    1.3883   -7.0793   37.8019 C   0  0  0  0  0  0  0  0  0  0  0  0
    0.4586   -6.4067   37.1041 N   0  0  0  0  0  0  0  0  0  0  0  0
    1.2309   -2.3579   33.4509 N   0  0  0  0  0  0  0  0  0  0  0  0
    2.2170   -1.8560   32.4038 C   0  0  0  0  0  0  0  0  0  0  0  0
    3.4381   -0.9310   32.6357 C   0  0  0  0  0  0  0  0  0  0  0  0
    2.9629    0.5005   32.8514 C   0  0  0  0  0  0  0  0  0  0  0  0
    1.4491    0.4282   33.0697 C   0  0  0  0  0  0  0  0  0  0  0  0
    0.5666    0.4954   31.8157 C   0  0  0  0  0  0  0  0  0  0  0  0
    1.0831    0.7033   30.5240 C   0  0  0  0  0  0  0  0  0  0  0  0
    0.3673    0.2945   29.3952 C   0  0  0  0  0  0  0  0  0  0  0  0
   -0.8925   -0.2843   29.5367 C   0  0  0  0  0  0  0  0  0  0  0  0
   -1.5131   -1.0533   28.4068 C   0  0  0  0  0  0  0  0  0  0  0  0
   -1.4822   -2.4368   28.7462 O   0  0  0  0  0  0  0  0  0  0  0  0
   -1.5023   -0.2534   30.7918 C   0  0  0  0  0  0  0  0  0  0  0  0
   -0.7855    0.1543   31.9209 C   0  0  0  0  0  0  0  0  0  0  0  0
    1.3317   -0.9134   33.9309 C   0  0  0  0  0  0  0  0  0  0  0  0
    1.2879   -3.9421   30.5523 H   0  0  0  0  0  0  0  0  0  0  0  0
    0.8302   -6.0787   29.4857 H   0  0  0  0  0  0  0  0  0  0  0  0
   -1.4243   -7.9962   33.9677 H   0  0  0  0  0  0  0  0  0  0  0  0
    2.9092   -8.2556   40.5446 H   0  0  0  0  0  0  0  0  0  0  0  0
    0.7686   -6.8384   39.9280 H   0  0  0  0  0  0  0  0  0  0  0  0
   -0.2998   -5.8720   37.5119 H   0  0  0  0  0  0  0  0  0  0  0  0
    2.7205   -2.8032   32.1464 H   0  0  0  0  0  0  0  0  0  0  0  0
    1.7028   -1.6531   31.4575 H   0  0  0  0  0  0  0  0  0  0  0  0
    4.0255   -1.2819   33.4932 H   0  0  0  0  0  0  0  0  0  0  0  0
    4.1003   -0.9676   31.7626 H   0  0  0  0  0  0  0  0  0  0  0  0
    3.4471    0.8897   33.7571 H   0  0  0  0  0  0  0  0  0  0  0  0
    3.2749    1.1710   32.0477 H   0  0  0  0  0  0  0  0  0  0  0  0
    1.1609    1.2788   33.7016 H   0  0  0  0  0  0  0  0  0  0  0  0
    2.0977    1.0512   30.3598 H   0  0  0  0  0  0  0  0  0  0  0  0
    0.8461    0.3328   28.4191 H   0  0  0  0  0  0  0  0  0  0  0  0
   -2.5418   -0.7451   28.2424 H   0  0  0  0  0  0  0  0  0  0  0  0
   -0.9561   -0.8991   27.4819 H   0  0  0  0  0  0  0  0  0  0  0  0
   -2.0307   -2.8954   28.0738 H   0  0  0  0  0  0  0  0  0  0  0  0
   -2.4879   -0.6936   30.9238 H   0  0  0  0  0  0  0  0  0  0  0  0
   -1.2522    0.0183   32.8940 H   0  0  0  0  0  0  0  0  0  0  0  0
    0.3699   -0.8024   34.4558 H   0  0  0  0  0  0  0  0  0  0  0  0
    2.0581   -0.9098   34.7613 H   0  0  0  0  0  0  0  0  0  0  0  0
  1  2  2  0
  2  3  1  0
  3  4  1  0
  4  5  2  0
  5  6  1  0
  6  7  2  0
  7  8  1  0
  8  9  2  0
  9 10  1  0
 10 11  1  0
 11 12  1  0
 12 13  1  0
 13 14  2  0
 14 15  1  0
 15 16  2  0
 15 17  1  0
 17 18  1  0
 18 19  1  0
 19 20  2  0
 20 21  1  0
 21 22  1  0
  2 23  1  0
 23 24  1  0
 24 25  1  0
 25 26  1  0
 26 27  1  0
 27 28  1  0
 28 29  2  0
 29 30  1  0
 30 31  2  0
 31 32  1  0
 32 33  1  0
 31 34  1  0
 34 35  2  0
 27 36  1  0
 11  3  2  0
 22 13  1  0
 36 23  1  0
 10  6  1  0
 21 17  2  0
 35 28  1  0
  4 37  1  0
  5 38  1  0
  9 39  1  0
 19 40  1  0
 20 41  1  0
 22 42  1  0
 24 43  1  0
 24 44  1  0
 25 45  1  0
 25 46  1  0
 26 47  1  0
 26 48  1  0
 27 49  1  0
 29 50  1  0
 30 51  1  0
 32 52  1  0
 32 53  1  0
 33 54  1  0
 34 55  1  0
 35 56  1  0
 36 57  1  0
 36 58  1  0
M  END
>  <Energy>  (219) 
122.03012771969595

>  <compound_id>  (219) 
2444

>  <target_id>  (219) 
1

>  <reference_id>  (219) 
131

>  <inspiration_ids>  (219) 
[167, 131]

>  <energy_score>  (219) 
41.958810551946044

>  <distance_score>  (219) 
1.6971037498856791

>  <path>  (219) 
/opt/xchem-fragalysis-2/maxwin/BulkDock/SCRATCH/505736/C2444-P131/C2444-P131.minimised.mol

>  <scratch_subdir>  (219) 
/opt/xchem-fragalysis-2/maxwin/BulkDock/SCRATCH/505736/C2444-P131

>  <fragmenstein_runtime>  (219) 
5.786853551864624

>  <fragmenstein_outcome>  (219) 
too moved

>  <fragmenstein_mode>  (219) 
expansion

>  <fragmenstein_error>  (219) 


$$$$
C2445-P167
     RDKit          3D

 48 53  0  0  0  0  0  0  0  0999 V2000
    3.2909   -9.0215   35.3320 O   0  0  0  0  0  0  0  0  0  0  0  0
    2.4907   -8.4598   36.0788 C   0  0  0  0  0  0  0  0  0  0  0  0
    1.5185   -7.6734   35.5271 N   0  0  0  0  0  0  0  0  0  0  0  0
    0.5559   -7.0381   36.2676 C   0  0  0  0  0  0  0  0  0  0  0  0
   -0.5877   -6.1033   35.3549 S   0  0  0  0  0  0  0  0  0  0  0  0
   -0.0562   -6.1088   33.7207 C   0  0  0  0  0  0  0  0  0  0  0  0
    0.9130   -5.2552   33.3551 C   0  0  0  0  0  0  0  0  0  0  0  0
    1.4226   -5.2206   31.9888 C   0  0  0  0  0  0  0  0  0  0  0  0
    2.4800   -4.3658   31.7308 N   0  0  0  0  0  0  0  0  0  0  0  0
    2.8399   -3.1779   32.5369 C   0  0  0  0  0  0  0  0  0  0  0  0
    1.7577   -2.1583   32.6213 C   0  0  0  0  0  0  0  0  0  0  0  0
    1.6826   -1.0424   33.3113 N   0  0  0  0  0  0  0  0  0  0  0  0
    0.6525   -0.2944   32.7628 N   0  0  0  0  0  0  0  0  0  0  0  0
    0.1393   -0.9824   31.7583 C   0  0  0  0  0  0  0  0  0  0  0  0
   -0.5614   -0.5119   30.5736 C   0  0  0  0  0  0  0  0  0  0  0  0
   -1.1828   -1.4044   29.6844 C   0  0  0  0  0  0  0  0  0  0  0  0
   -1.5914   -0.9705   28.4255 C   0  0  0  0  0  0  0  0  0  0  0  0
   -1.4202    0.3607   28.0595 C   0  0  0  0  0  0  0  0  0  0  0  0
   -0.8579    1.2655   28.9549 C   0  0  0  0  0  0  0  0  0  0  0  0
   -0.4264    0.8300   30.2062 C   0  0  0  0  0  0  0  0  0  0  0  0
    0.6548   -2.2419   31.8191 N   0  0  0  0  0  0  0  0  0  0  0  0
    0.8348   -6.0008   31.0547 C   0  0  0  0  0  0  0  0  0  0  0  0
   -0.1945   -6.9128   31.4192 C   0  0  0  0  0  0  0  0  0  0  0  0
   -0.8670   -7.8016   30.7229 N   0  0  0  0  0  0  0  0  0  0  0  0
   -1.6699   -8.4888   31.5983 N   0  0  0  0  0  0  0  0  0  0  0  0
   -1.4824   -7.9933   32.8037 C   0  0  0  0  0  0  0  0  0  0  0  0
   -0.5865   -6.9615   32.7517 N   0  0  0  0  0  0  0  0  0  0  0  0
    0.4499   -7.0661   37.5572 N   0  0  0  0  0  0  0  0  0  0  0  0
    1.3909   -7.8918   38.1831 C   0  0  0  0  0  0  0  0  0  0  0  0
    1.3953   -8.1715   39.5646 C   0  0  0  0  0  0  0  0  0  0  0  0
    2.4340   -9.0228   39.8886 C   0  0  0  0  0  0  0  0  0  0  0  0
    3.3893   -9.4379   38.5165 S   0  0  0  0  0  0  0  0  0  0  0  0
    2.3821   -8.5399   37.4988 C   0  0  0  0  0  0  0  0  0  0  0  0
    1.5497   -7.5895   34.5325 H   0  0  0  0  0  0  0  0  0  0  0  0
    1.3314   -4.5811   34.0970 H   0  0  0  0  0  0  0  0  0  0  0  0
    2.7577   -4.2851   30.7545 H   0  0  0  0  0  0  0  0  0  0  0  0
    3.1563   -3.4838   33.5401 H   0  0  0  0  0  0  0  0  0  0  0  0
    3.7166   -2.7136   32.0703 H   0  0  0  0  0  0  0  0  0  0  0  0
   -1.3329   -2.4506   29.9305 H   0  0  0  0  0  0  0  0  0  0  0  0
   -2.0539   -1.6634   27.7241 H   0  0  0  0  0  0  0  0  0  0  0  0
   -1.7559    0.6954   27.0809 H   0  0  0  0  0  0  0  0  0  0  0  0
   -0.7472    2.3105   28.6738 H   0  0  0  0  0  0  0  0  0  0  0  0
    0.0654    1.5378   30.8717 H   0  0  0  0  0  0  0  0  0  0  0  0
    0.5185   -2.9579   31.1265 H   0  0  0  0  0  0  0  0  0  0  0  0
    1.1604   -5.9948   30.0212 H   0  0  0  0  0  0  0  0  0  0  0  0
   -1.9624   -8.3355   33.7125 H   0  0  0  0  0  0  0  0  0  0  0  0
    0.6753   -7.7958   40.2789 H   0  0  0  0  0  0  0  0  0  0  0  0
    2.6807   -9.4275   40.8605 H   0  0  0  0  0  0  0  0  0  0  0  0
  1  2  2  0
  2  3  1  0
  3  4  1  0
  4  5  1  0
  5  6  1  0
  6  7  2  0
  7  8  1  0
  8  9  1  0
  9 10  1  0
 10 11  1  0
 11 12  2  0
 12 13  1  0
 13 14  2  0
 14 15  1  0
 15 16  2  0
 16 17  1  0
 17 18  2  0
 18 19  1  0
 19 20  2  0
 14 21  1  0
  8 22  2  0
 22 23  1  0
 23 24  2  0
 24 25  1  0
 25 26  2  0
 26 27  1  0
  4 28  2  0
 28 29  1  0
 29 30  1  0
 30 31  2  0
 31 32  1  0
 32 33  1  0
 33  2  1  0
 27  6  1  0
 33 29  2  0
 21 11  1  0
 27 23  1  0
 20 15  1  0
  3 34  1  0
  7 35  1  0
  9 36  1  0
 10 37  1  0
 10 38  1  0
 16 39  1  0
 17 40  1  0
 18 41  1  0
 19 42  1  0
 20 43  1  0
 21 44  1  0
 22 45  1  0
 26 46  1  0
 30 47  1  0
 31 48  1  0
M  END
>  <Energy>  (220) 
-21.267279774060839

>  <compound_id>  (220) 
2445

>  <target_id>  (220) 
1

>  <reference_id>  (220) 
167

>  <inspiration_ids>  (220) 
[167, 134]

>  <energy_score>  (220) 
-40.250331352459284

>  <distance_score>  (220) 
0.8421725424359943

>  <path>  (220) 
/opt/xchem-fragalysis-2/maxwin/BulkDock/SCRATCH/505736/C2445-P167/C2445-P167.minimised.mol

>  <scratch_subdir>  (220) 
/opt/xchem-fragalysis-2/maxwin/BulkDock/SCRATCH/505736/C2445-P167

>  <fragmenstein_runtime>  (220) 
4.3935418128967285

>  <fragmenstein_outcome>  (220) 
acceptable

>  <fragmenstein_mode>  (220) 
expansion

>  <fragmenstein_error>  (220) 


$$$$
C2445-P134
     RDKit          3D

 48 53  0  0  0  0  0  0  0  0999 V2000
    3.5439   -8.1677   35.5060 O   0  0  0  0  0  0  0  0  0  0  0  0
    2.6156   -7.7742   36.2112 C   0  0  0  0  0  0  0  0  0  0  0  0
    1.5064   -7.2475   35.6096 N   0  0  0  0  0  0  0  0  0  0  0  0
    0.3752   -6.8847   36.2970 C   0  0  0  0  0  0  0  0  0  0  0  0
   -0.9497   -6.2929   35.3259 S   0  0  0  0  0  0  0  0  0  0  0  0
   -0.3178   -6.0829   33.7351 C   0  0  0  0  0  0  0  0  0  0  0  0
    0.6286   -5.1606   33.4945 C   0  0  0  0  0  0  0  0  0  0  0  0
    1.2606   -5.0532   32.1816 C   0  0  0  0  0  0  0  0  0  0  0  0
    2.3460   -4.2017   32.0701 N   0  0  0  0  0  0  0  0  0  0  0  0
    2.6288   -3.0422   32.9442 C   0  0  0  0  0  0  0  0  0  0  0  0
    1.5735   -1.9963   32.8939 C   0  0  0  0  0  0  0  0  0  0  0  0
    1.4876   -0.8334   33.4999 N   0  0  0  0  0  0  0  0  0  0  0  0
    0.5329   -0.0922   32.8209 N   0  0  0  0  0  0  0  0  0  0  0  0
    0.0728   -0.8343   31.8301 C   0  0  0  0  0  0  0  0  0  0  0  0
   -0.5150   -0.4365   30.5632 C   0  0  0  0  0  0  0  0  0  0  0  0
   -1.1821   -1.3567   29.7400 C   0  0  0  0  0  0  0  0  0  0  0  0
   -1.5150   -1.0114   28.4328 C   0  0  0  0  0  0  0  0  0  0  0  0
   -1.2238    0.2608   27.9511 C   0  0  0  0  0  0  0  0  0  0  0  0
   -0.5915    1.1899   28.7696 C   0  0  0  0  0  0  0  0  0  0  0  0
   -0.2293    0.8384   30.0679 C   0  0  0  0  0  0  0  0  0  0  0  0
    0.5301   -2.1019   32.0184 N   0  0  0  0  0  0  0  0  0  0  0  0
    0.7645   -5.7779   31.1532 C   0  0  0  0  0  0  0  0  0  0  0  0
   -0.2710   -6.7248   31.3769 C   0  0  0  0  0  0  0  0  0  0  0  0
   -0.8777   -7.5799   30.5836 N   0  0  0  0  0  0  0  0  0  0  0  0
   -1.7093   -8.3447   31.3596 N   0  0  0  0  0  0  0  0  0  0  0  0
   -1.6024   -7.9283   32.5996 C   0  0  0  0  0  0  0  0  0  0  0  0
   -0.7414   -6.8754   32.6722 N   0  0  0  0  0  0  0  0  0  0  0  0
    0.2182   -6.9431   37.5804 N   0  0  0  0  0  0  0  0  0  0  0  0
    1.3104   -7.4987   38.2588 C   0  0  0  0  0  0  0  0  0  0  0  0
    1.3130   -7.7851   39.6397 C   0  0  0  0  0  0  0  0  0  0  0  0
    2.5049   -8.3730   40.0175 C   0  0  0  0  0  0  0  0  0  0  0  0
    3.5950   -8.5457   38.6949 S   0  0  0  0  0  0  0  0  0  0  0  0
    2.4654   -7.8742   37.6288 C   0  0  0  0  0  0  0  0  0  0  0  0
    1.5496   -7.2167   34.6115 H   0  0  0  0  0  0  0  0  0  0  0  0
    0.9625   -4.5155   34.3020 H   0  0  0  0  0  0  0  0  0  0  0  0
    2.7150   -4.0819   31.1276 H   0  0  0  0  0  0  0  0  0  0  0  0
    2.7955   -3.3718   33.9752 H   0  0  0  0  0  0  0  0  0  0  0  0
    3.5740   -2.5984   32.6104 H   0  0  0  0  0  0  0  0  0  0  0  0
   -1.4325   -2.3566   30.0801 H   0  0  0  0  0  0  0  0  0  0  0  0
   -2.0170   -1.7258   27.7829 H   0  0  0  0  0  0  0  0  0  0  0  0
   -1.5124    0.5285   26.9378 H   0  0  0  0  0  0  0  0  0  0  0  0
   -0.3769    2.1883   28.3956 H   0  0  0  0  0  0  0  0  0  0  0  0
    0.3091    1.5608   30.6799 H   0  0  0  0  0  0  0  0  0  0  0  0
    0.4259   -2.8506   31.3558 H   0  0  0  0  0  0  0  0  0  0  0  0
    1.1800   -5.7119   30.1540 H   0  0  0  0  0  0  0  0  0  0  0  0
   -2.1121   -8.3437   33.4554 H   0  0  0  0  0  0  0  0  0  0  0  0
    0.4910   -7.5922   40.3167 H   0  0  0  0  0  0  0  0  0  0  0  0
    2.7950   -8.7053   41.0048 H   0  0  0  0  0  0  0  0  0  0  0  0
  1  2  2  0
  2  3  1  0
  3  4  1  0
  4  5  1  0
  5  6  1  0
  6  7  2  0
  7  8  1  0
  8  9  1  0
  9 10  1  0
 10 11  1  0
 11 12  2  0
 12 13  1  0
 13 14  2  0
 14 15  1  0
 15 16  2  0
 16 17  1  0
 17 18  2  0
 18 19  1  0
 19 20  2  0
 14 21  1  0
  8 22  2  0
 22 23  1  0
 23 24  2  0
 24 25  1  0
 25 26  2  0
 26 27  1  0
  4 28  2  0
 28 29  1  0
 29 30  1  0
 30 31  2  0
 31 32  1  0
 32 33  1  0
 33  2  1  0
 27  6  1  0
 33 29  2  0
 21 11  1  0
 27 23  1  0
 20 15  1  0
  3 34  1  0
  7 35  1  0
  9 36  1  0
 10 37  1  0
 10 38  1  0
 16 39  1  0
 17 40  1  0
 18 41  1  0
 19 42  1  0
 20 43  1  0
 21 44  1  0
 22 45  1  0
 26 46  1  0
 30 47  1  0
 31 48  1  0
M  END
>  <Energy>  (221) 
-20.891788251788039

>  <compound_id>  (221) 
2445

>  <target_id>  (221) 
1

>  <reference_id>  (221) 
134

>  <inspiration_ids>  (221) 
[167, 134]

>  <energy_score>  (221) 
-39.874839830185294

>  <distance_score>  (221) 
0.9127430898326128

>  <path>  (221) 
/opt/xchem-fragalysis-2/maxwin/BulkDock/SCRATCH/505736/C2445-P134/C2445-P134.minimised.mol

>  <scratch_subdir>  (221) 
/opt/xchem-fragalysis-2/maxwin/BulkDock/SCRATCH/505736/C2445-P134

>  <fragmenstein_runtime>  (221) 
3.440237522125244

>  <fragmenstein_outcome>  (221) 
acceptable

>  <fragmenstein_mode>  (221) 
expansion

>  <fragmenstein_error>  (221) 


$$$$
C2473-P167
     RDKit          3D

 55 59  0  0  0  0  0  0  0  0999 V2000
    5.5433   -6.7199   36.4428 C   0  0  0  0  0  0  0  0  0  0  0  0
    5.9222   -5.9255   37.6782 C   0  0  0  0  0  0  0  0  0  0  0  0
    5.0983   -6.1607   38.9319 C   0  0  0  0  0  0  0  0  0  0  0  0
    3.6230   -5.9539   38.6772 C   0  0  0  0  0  0  0  0  0  0  0  0
    3.0110   -7.1307   38.0195 C   0  0  0  0  0  0  0  0  0  0  0  0
    2.2089   -7.2269   36.9428 C   0  0  0  0  0  0  0  0  0  0  0  0
    1.8527   -6.4001   35.8757 N   0  0  0  0  0  0  0  0  0  0  0  0
    0.4900   -6.4080   35.2253 C   0  0  0  0  0  0  0  0  0  0  0  0
    0.5551   -6.1416   33.7056 C   0  0  0  0  0  0  0  0  0  0  0  0
    1.3425   -5.1407   33.2388 C   0  0  0  0  0  0  0  0  0  0  0  0
    1.4048   -4.8226   31.8240 C   0  0  0  0  0  0  0  0  0  0  0  0
    0.7190   -5.5301   30.9144 C   0  0  0  0  0  0  0  0  0  0  0  0
   -0.0937   -6.6050   31.3427 C   0  0  0  0  0  0  0  0  0  0  0  0
   -0.8020   -7.4653   30.6452 N   0  0  0  0  0  0  0  0  0  0  0  0
   -1.4745   -8.2530   31.5247 N   0  0  0  0  0  0  0  0  0  0  0  0
   -1.1521   -7.8617   32.7389 C   0  0  0  0  0  0  0  0  0  0  0  0
   -0.2084   -6.8565   32.7179 N   0  0  0  0  0  0  0  0  0  0  0  0
   -0.2630   -7.6776   35.5937 C   0  0  0  0  0  0  0  0  0  0  0  0
   -0.0580   -8.0931   37.0288 C   0  0  0  0  0  0  0  0  0  0  0  0
   -0.4001   -7.0108   37.9297 N   0  0  0  0  0  0  0  0  0  0  0  0
   -0.0494   -6.9774   39.2336 C   0  0  0  0  0  0  0  0  0  0  0  0
   -0.4851   -6.0798   39.9584 O   0  0  0  0  0  0  0  0  0  0  0  0
    0.8816   -8.0695   39.7300 C   0  0  0  0  0  0  0  0  0  0  0  0
   -0.0164   -9.2236   40.8074 S   0  0  0  0  0  0  0  0  0  0  0  0
   -0.1461   -8.2214   42.3077 C   0  0  0  0  0  0  0  0  0  0  0  0
    1.6757   -8.8549   38.6465 C   0  0  0  0  0  0  0  0  0  0  0  0
    3.1152   -8.4406   38.7589 C   0  0  0  0  0  0  0  0  0  0  0  0
    1.3902   -8.4656   37.1891 C   0  0  0  0  0  0  0  0  0  0  0  0
    4.6519   -6.3176   35.9590 H   0  0  0  0  0  0  0  0  0  0  0  0
    6.3486   -6.6452   35.7029 H   0  0  0  0  0  0  0  0  0  0  0  0
    5.4083   -7.7820   36.6652 H   0  0  0  0  0  0  0  0  0  0  0  0
    5.8969   -4.8584   37.4226 H   0  0  0  0  0  0  0  0  0  0  0  0
    6.9693   -6.1476   37.9208 H   0  0  0  0  0  0  0  0  0  0  0  0
    5.3257   -7.1502   39.3428 H   0  0  0  0  0  0  0  0  0  0  0  0
    5.4279   -5.4395   39.6908 H   0  0  0  0  0  0  0  0  0  0  0  0
    3.1198   -5.7927   39.6386 H   0  0  0  0  0  0  0  0  0  0  0  0
    3.4531   -5.0430   38.0910 H   0  0  0  0  0  0  0  0  0  0  0  0
    2.2191   -5.4592   36.0063 H   0  0  0  0  0  0  0  0  0  0  0  0
   -0.0592   -5.5604   35.6597 H   0  0  0  0  0  0  0  0  0  0  0  0
    1.9409   -4.5251   33.9045 H   0  0  0  0  0  0  0  0  0  0  0  0
    2.0236   -3.9821   31.5213 H   0  0  0  0  0  0  0  0  0  0  0  0
    0.7577   -5.2873   29.8586 H   0  0  0  0  0  0  0  0  0  0  0  0
   -1.5976   -8.3030   33.6138 H   0  0  0  0  0  0  0  0  0  0  0  0
    0.0660   -8.5119   34.9700 H   0  0  0  0  0  0  0  0  0  0  0  0
   -1.3260   -7.5105   35.4176 H   0  0  0  0  0  0  0  0  0  0  0  0
   -0.7021   -8.9356   37.2728 H   0  0  0  0  0  0  0  0  0  0  0  0
   -1.2001   -6.4514   37.6997 H   0  0  0  0  0  0  0  0  0  0  0  0
    1.5851   -7.5588   40.3983 H   0  0  0  0  0  0  0  0  0  0  0  0
   -0.5794   -8.8342   43.1030 H   0  0  0  0  0  0  0  0  0  0  0  0
    0.8412   -7.8862   42.6358 H   0  0  0  0  0  0  0  0  0  0  0  0
   -0.7990   -7.3601   42.1541 H   0  0  0  0  0  0  0  0  0  0  0  0
    1.6009   -9.9337   38.7947 H   0  0  0  0  0  0  0  0  0  0  0  0
    3.4528   -8.3551   39.7962 H   0  0  0  0  0  0  0  0  0  0  0  0
    3.7961   -9.1234   38.2362 H   0  0  0  0  0  0  0  0  0  0  0  0
    1.7404   -9.2200   36.4891 H   0  0  0  0  0  0  0  0  0  0  0  0
  1  2  1  0
  2  3  1  0
  3  4  1  0
  4  5  1  0
  5  6  2  0
  6  7  1  0
  7  8  1  0
  8  9  1  0
  9 10  2  0
 10 11  1  0
 11 12  2  0
 12 13  1  0
 13 14  2  0
 14 15  1  0
 15 16  2  0
 16 17  1  0
  8 18  1  0
 18 19  1  0
 19 20  1  0
 20 21  1  0
 21 22  2  0
 21 23  1  0
 23 24  1  0
 24 25  1  0
 23 26  1  0
 26 27  1  0
 26 28  1  0
 27  5  1  0
 28  6  1  0
 17  9  1  0
 28 19  1  0
 17 13  1  0
  1 29  1  0
  1 30  1  0
  1 31  1  0
  2 32  1  0
  2 33  1  0
  3 34  1  0
  3 35  1  0
  4 36  1  0
  4 37  1  0
  7 38  1  0
  8 39  1  0
 10 40  1  0
 11 41  1  0
 12 42  1  0
 16 43  1  0
 18 44  1  0
 18 45  1  0
 19 46  1  0
 20 47  1  0
 23 48  1  0
 25 49  1  0
 25 50  1  0
 25 51  1  0
 26 52  1  0
 27 53  1  0
 27 54  1  0
 28 55  1  0
M  END
>  <Energy>  (222) 
86.932116934134839

>  <compound_id>  (222) 
2473

>  <target_id>  (222) 
1

>  <reference_id>  (222) 
167

>  <inspiration_ids>  (222) 
[167, 140]

>  <energy_score>  (222) 
-29.58313610365026

>  <distance_score>  (222) 
2.0384177724557273

>  <path>  (222) 
/opt/xchem-fragalysis-2/maxwin/BulkDock/SCRATCH/505736/C2473-P167/C2473-P167.minimised.mol

>  <scratch_subdir>  (222) 
/opt/xchem-fragalysis-2/maxwin/BulkDock/SCRATCH/505736/C2473-P167

>  <fragmenstein_runtime>  (222) 
2.0618488788604736

>  <fragmenstein_outcome>  (222) 
too moved

>  <fragmenstein_mode>  (222) 
expansion

>  <fragmenstein_error>  (222) 


$$$$
C2473-P140
     RDKit          3D

 55 59  0  0  0  0  0  0  0  0999 V2000
    4.5767   -4.9413   37.4028 C   0  0  0  0  0  0  0  0  0  0  0  0
    4.6267   -5.7039   38.7149 C   0  0  0  0  0  0  0  0  0  0  0  0
    5.1299   -7.1376   38.5687 C   0  0  0  0  0  0  0  0  0  0  0  0
    4.3718   -7.9719   37.5360 C   0  0  0  0  0  0  0  0  0  0  0  0
    2.9034   -7.8494   37.6747 C   0  0  0  0  0  0  0  0  0  0  0  0
    1.9553   -7.4471   36.8128 C   0  0  0  0  0  0  0  0  0  0  0  0
    1.9318   -7.0664   35.4739 N   0  0  0  0  0  0  0  0  0  0  0  0
    0.6161   -6.6665   34.9082 C   0  0  0  0  0  0  0  0  0  0  0  0
    0.6677   -6.2422   33.4599 C   0  0  0  0  0  0  0  0  0  0  0  0
    1.5263   -5.3225   32.9649 C   0  0  0  0  0  0  0  0  0  0  0  0
    1.4770   -4.9652   31.5542 C   0  0  0  0  0  0  0  0  0  0  0  0
    0.6305   -5.5681   30.7000 C   0  0  0  0  0  0  0  0  0  0  0  0
   -0.2552   -6.5611   31.1850 C   0  0  0  0  0  0  0  0  0  0  0  0
   -1.1343   -7.3370   30.5878 N   0  0  0  0  0  0  0  0  0  0  0  0
   -1.7957   -8.0393   31.5586 N   0  0  0  0  0  0  0  0  0  0  0  0
   -1.3003   -7.6760   32.7189 C   0  0  0  0  0  0  0  0  0  0  0  0
   -0.2515   -6.8132   32.5506 N   0  0  0  0  0  0  0  0  0  0  0  0
   -0.0398   -5.6112   35.7925 C   0  0  0  0  0  0  0  0  0  0  0  0
   -0.0077   -6.0055   37.2771 C   0  0  0  0  0  0  0  0  0  0  0  0
    0.6468   -4.9693   38.0435 N   0  0  0  0  0  0  0  0  0  0  0  0
    0.9892   -5.1343   39.3463 C   0  0  0  0  0  0  0  0  0  0  0  0
    1.3652   -4.1531   39.9891 O   0  0  0  0  0  0  0  0  0  0  0  0
    0.8724   -6.5186   39.9630 C   0  0  0  0  0  0  0  0  0  0  0  0
   -0.6718   -6.6961   40.9034 S   0  0  0  0  0  0  0  0  0  0  0  0
   -0.4403   -5.4012   42.1499 C   0  0  0  0  0  0  0  0  0  0  0  0
    0.9561   -7.6942   38.9906 C   0  0  0  0  0  0  0  0  0  0  0  0
    2.3628   -8.2622   39.0026 C   0  0  0  0  0  0  0  0  0  0  0  0
    0.6344   -7.3771   37.5268 C   0  0  0  0  0  0  0  0  0  0  0  0
    3.7980   -5.3014   36.7324 H   0  0  0  0  0  0  0  0  0  0  0  0
    4.3653   -3.8845   37.5985 H   0  0  0  0  0  0  0  0  0  0  0  0
    5.5366   -4.9969   36.8794 H   0  0  0  0  0  0  0  0  0  0  0  0
    3.6496   -5.6738   39.1987 H   0  0  0  0  0  0  0  0  0  0  0  0
    5.3081   -5.1764   39.3943 H   0  0  0  0  0  0  0  0  0  0  0  0
    6.1880   -7.1159   38.2767 H   0  0  0  0  0  0  0  0  0  0  0  0
    5.1102   -7.6282   39.5493 H   0  0  0  0  0  0  0  0  0  0  0  0
    4.6770   -7.6653   36.5279 H   0  0  0  0  0  0  0  0  0  0  0  0
    4.6691   -9.0230   37.6331 H   0  0  0  0  0  0  0  0  0  0  0  0
    2.7338   -6.4914   35.2264 H   0  0  0  0  0  0  0  0  0  0  0  0
    0.0025   -7.5712   34.9680 H   0  0  0  0  0  0  0  0  0  0  0  0
    2.2520   -4.8106   33.5905 H   0  0  0  0  0  0  0  0  0  0  0  0
    2.1486   -4.1844   31.2063 H   0  0  0  0  0  0  0  0  0  0  0  0
    0.5907   -5.2905   29.6534 H   0  0  0  0  0  0  0  0  0  0  0  0
   -1.6615   -8.0062   33.6781 H   0  0  0  0  0  0  0  0  0  0  0  0
   -1.0848   -5.4779   35.4821 H   0  0  0  0  0  0  0  0  0  0  0  0
    0.4438   -4.6370   35.6397 H   0  0  0  0  0  0  0  0  0  0  0  0
   -1.0338   -6.0153   37.6525 H   0  0  0  0  0  0  0  0  0  0  0  0
    0.5912   -3.9964   37.7642 H   0  0  0  0  0  0  0  0  0  0  0  0
    1.6655   -6.5896   40.7156 H   0  0  0  0  0  0  0  0  0  0  0  0
    0.5466   -5.4774   42.6133 H   0  0  0  0  0  0  0  0  0  0  0  0
   -0.5748   -4.4109   41.7090 H   0  0  0  0  0  0  0  0  0  0  0  0
   -1.1960   -5.5266   42.9303 H   0  0  0  0  0  0  0  0  0  0  0  0
    0.2930   -8.4941   39.3340 H   0  0  0  0  0  0  0  0  0  0  0  0
    2.3802   -9.3453   39.1165 H   0  0  0  0  0  0  0  0  0  0  0  0
    2.9538   -7.8823   39.8387 H   0  0  0  0  0  0  0  0  0  0  0  0
   -0.0287   -8.1409   37.1227 H   0  0  0  0  0  0  0  0  0  0  0  0
  1  2  1  0
  2  3  1  0
  3  4  1  0
  4  5  1  0
  5  6  2  0
  6  7  1  0
  7  8  1  0
  8  9  1  0
  9 10  2  0
 10 11  1  0
 11 12  2  0
 12 13  1  0
 13 14  2  0
 14 15  1  0
 15 16  2  0
 16 17  1  0
  8 18  1  0
 18 19  1  0
 19 20  1  0
 20 21  1  0
 21 22  2  0
 21 23  1  0
 23 24  1  0
 24 25  1  0
 23 26  1  0
 26 27  1  0
 26 28  1  0
 27  5  1  0
 28  6  1  0
 17  9  1  0
 28 19  1  0
 17 13  1  0
  1 29  1  0
  1 30  1  0
  1 31  1  0
  2 32  1  0
  2 33  1  0
  3 34  1  0
  3 35  1  0
  4 36  1  0
  4 37  1  0
  7 38  1  0
  8 39  1  0
 10 40  1  0
 11 41  1  0
 12 42  1  0
 16 43  1  0
 18 44  1  0
 18 45  1  0
 19 46  1  0
 20 47  1  0
 23 48  1  0
 25 49  1  0
 25 50  1  0
 25 51  1  0
 26 52  1  0
 27 53  1  0
 27 54  1  0
 28 55  1  0
M  END
>  <Energy>  (223) 
63.261445212134333

>  <compound_id>  (223) 
2473

>  <target_id>  (223) 
1

>  <reference_id>  (223) 
140

>  <inspiration_ids>  (223) 
[167, 140]

>  <energy_score>  (223) 
-53.25380782565219

>  <distance_score>  (223) 
2.200011816142521

>  <path>  (223) 
/opt/xchem-fragalysis-2/maxwin/BulkDock/SCRATCH/505736/C2473-P140/C2473-P140.minimised.mol

>  <scratch_subdir>  (223) 
/opt/xchem-fragalysis-2/maxwin/BulkDock/SCRATCH/505736/C2473-P140

>  <fragmenstein_runtime>  (223) 
2.4380743503570557

>  <fragmenstein_outcome>  (223) 
too moved

>  <fragmenstein_mode>  (223) 
expansion

>  <fragmenstein_error>  (223) 


$$$$
C2476-P167
     RDKit          3D

 27 28  0  0  0  0  0  0  0  0999 V2000
    2.9173   -8.5179   35.1610 O   0  0  0  0  0  0  0  0  0  0  0  0
    2.2834   -8.5135   36.2212 C   0  0  0  0  0  0  0  0  0  0  0  0
    2.9816   -8.7169   37.5469 C   0  0  0  0  0  0  0  0  0  0  0  0
    2.2619   -7.8901   38.9996 S   0  0  0  0  0  0  0  0  0  0  0  0
    1.4090   -6.4225   38.2968 C   0  0  0  0  0  0  0  0  0  0  0  0
    2.1791   -5.6047   37.2374 C   0  0  0  0  0  0  0  0  0  0  0  0
    1.3725   -4.9875   36.1579 N   0  0  0  0  0  0  0  0  0  0  0  0
    1.5434   -5.5912   34.8292 C   0  0  0  0  0  0  0  0  0  0  0  0
    0.4875   -6.6144   34.5843 C   0  0  0  0  0  0  0  0  0  0  0  0
   -0.4563   -6.5945   33.5177 C   0  0  0  0  0  0  0  0  0  0  0  0
   -1.2839   -7.6785   33.6754 C   0  0  0  0  0  0  0  0  0  0  0  0
   -0.9991   -8.2336   34.8972 N   0  0  0  0  0  0  0  0  0  0  0  0
    0.2181   -7.7686   35.2983 C   0  0  0  0  0  0  0  0  0  0  0  0
    0.9124   -8.4141   36.2868 N   0  0  0  0  0  0  0  0  0  0  0  0
    4.0073   -8.3467   37.4448 H   0  0  0  0  0  0  0  0  0  0  0  0
    3.0384   -9.7876   37.7571 H   0  0  0  0  0  0  0  0  0  0  0  0
    0.4176   -6.7237   37.9490 H   0  0  0  0  0  0  0  0  0  0  0  0
    1.2001   -5.7618   39.1476 H   0  0  0  0  0  0  0  0  0  0  0  0
    3.0407   -6.1344   36.8229 H   0  0  0  0  0  0  0  0  0  0  0  0
    2.6325   -4.7605   37.7744 H   0  0  0  0  0  0  0  0  0  0  0  0
    0.3807   -4.9887   36.3933 H   0  0  0  0  0  0  0  0  0  0  0  0
    2.5491   -5.9937   34.6731 H   0  0  0  0  0  0  0  0  0  0  0  0
    1.4294   -4.7849   34.0945 H   0  0  0  0  0  0  0  0  0  0  0  0
   -0.5031   -5.8747   32.7115 H   0  0  0  0  0  0  0  0  0  0  0  0
   -2.0768   -8.0839   33.0656 H   0  0  0  0  0  0  0  0  0  0  0  0
   -1.4678   -9.0524   35.2697 H   0  0  0  0  0  0  0  0  0  0  0  0
    0.4121   -8.9680   36.9828 H   0  0  0  0  0  0  0  0  0  0  0  0
  1  2  2  0
  2  3  1  0
  3  4  1  0
  4  5  1  0
  5  6  1  0
  6  7  1  0
  7  8  1  0
  8  9  1  0
  9 10  1  0
 10 11  2  0
 11 12  1  0
 12 13  1  0
 13 14  1  0
 14  2  1  0
 13  9  2  0
  3 15  1  0
  3 16  1  0
  5 17  1  0
  5 18  1  0
  6 19  1  0
  6 20  1  0
  7 21  1  0
  8 22  1  0
  8 23  1  0
 10 24  1  0
 11 25  1  0
 12 26  1  0
 14 27  1  0
M  END
>  <Energy>  (224) 
70.59707537726139

>  <compound_id>  (224) 
2476

>  <target_id>  (224) 
1

>  <reference_id>  (224) 
167

>  <inspiration_ids>  (224) 
[167, 147]

>  <energy_score>  (224) 
-47.8995577074685

>  <distance_score>  (224) 
2.5153287329949676

>  <path>  (224) 
/opt/xchem-fragalysis-2/maxwin/BulkDock/SCRATCH/505736/C2476-P167/C2476-P167.minimised.mol

>  <scratch_subdir>  (224) 
/opt/xchem-fragalysis-2/maxwin/BulkDock/SCRATCH/505736/C2476-P167

>  <fragmenstein_runtime>  (224) 
1.2296888828277588

>  <fragmenstein_outcome>  (224) 
too moved

>  <fragmenstein_mode>  (224) 
expansion

>  <fragmenstein_error>  (224) 


$$$$
C2476-P147
     RDKit          3D

 27 28  0  0  0  0  0  0  0  0999 V2000
    3.1118   -8.5365   34.8737 O   0  0  0  0  0  0  0  0  0  0  0  0
    2.9309   -7.4271   35.3793 C   0  0  0  0  0  0  0  0  0  0  0  0
    3.3390   -7.0078   36.7932 C   0  0  0  0  0  0  0  0  0  0  0  0
    3.3226   -8.3490   38.0140 S   0  0  0  0  0  0  0  0  0  0  0  0
    1.9833   -7.7919   39.1285 C   0  0  0  0  0  0  0  0  0  0  0  0
    0.5967   -7.7107   38.4808 C   0  0  0  0  0  0  0  0  0  0  0  0
    0.4822   -6.6188   37.5123 N   0  0  0  0  0  0  0  0  0  0  0  0
   -0.1120   -7.0227   36.2556 C   0  0  0  0  0  0  0  0  0  0  0  0
    0.2138   -5.9233   35.3349 C   0  0  0  0  0  0  0  0  0  0  0  0
   -0.6459   -4.8390   35.0312 C   0  0  0  0  0  0  0  0  0  0  0  0
   -0.0146   -4.0386   34.1141 C   0  0  0  0  0  0  0  0  0  0  0  0
    1.2040   -4.5991   33.8709 N   0  0  0  0  0  0  0  0  0  0  0  0
    1.3825   -5.7185   34.6352 C   0  0  0  0  0  0  0  0  0  0  0  0
    2.5844   -6.3903   34.5384 N   0  0  0  0  0  0  0  0  0  0  0  0
    2.8243   -6.1089   37.1348 H   0  0  0  0  0  0  0  0  0  0  0  0
    4.3906   -6.7063   36.7032 H   0  0  0  0  0  0  0  0  0  0  0  0
    1.9419   -8.5140   39.9512 H   0  0  0  0  0  0  0  0  0  0  0  0
    2.2668   -6.8287   39.5671 H   0  0  0  0  0  0  0  0  0  0  0  0
   -0.1483   -7.5524   39.2689 H   0  0  0  0  0  0  0  0  0  0  0  0
    0.3615   -8.6675   38.0216 H   0  0  0  0  0  0  0  0  0  0  0  0
   -0.0348   -5.8360   37.9108 H   0  0  0  0  0  0  0  0  0  0  0  0
   -1.1924   -7.1518   36.3434 H   0  0  0  0  0  0  0  0  0  0  0  0
    0.3011   -7.9612   35.8751 H   0  0  0  0  0  0  0  0  0  0  0  0
   -1.6129   -4.6457   35.4705 H   0  0  0  0  0  0  0  0  0  0  0  0
   -0.3198   -3.1158   33.6393 H   0  0  0  0  0  0  0  0  0  0  0  0
    1.9087   -4.1960   33.2702 H   0  0  0  0  0  0  0  0  0  0  0  0
    2.8165   -6.5764   33.5723 H   0  0  0  0  0  0  0  0  0  0  0  0
  1  2  2  0
  2  3  1  0
  3  4  1  0
  4  5  1  0
  5  6  1  0
  6  7  1  0
  7  8  1  0
  8  9  1  0
  9 10  1  0
 10 11  2  0
 11 12  1  0
 12 13  1  0
 13 14  1  0
 14  2  1  0
 13  9  2  0
  3 15  1  0
  3 16  1  0
  5 17  1  0
  5 18  1  0
  6 19  1  0
  6 20  1  0
  7 21  1  0
  8 22  1  0
  8 23  1  0
 10 24  1  0
 11 25  1  0
 12 26  1  0
 14 27  1  0
M  END
>  <Energy>  (225) 
64.308664107494877

>  <compound_id>  (225) 
2476

>  <target_id>  (225) 
1

>  <reference_id>  (225) 
147

>  <inspiration_ids>  (225) 
[167, 147]

>  <energy_score>  (225) 
-54.18796897723525

>  <distance_score>  (225) 
3.0507905268665465

>  <path>  (225) 
/opt/xchem-fragalysis-2/maxwin/BulkDock/SCRATCH/505736/C2476-P147/C2476-P147.minimised.mol

>  <scratch_subdir>  (225) 
/opt/xchem-fragalysis-2/maxwin/BulkDock/SCRATCH/505736/C2476-P147

>  <fragmenstein_runtime>  (225) 
1.0361511707305908

>  <fragmenstein_outcome>  (225) 
too moved

>  <fragmenstein_mode>  (225) 
expansion

>  <fragmenstein_error>  (225) 


$$$$
C2457-P167
     RDKit          3D

 44 48  0  0  0  0  0  0  0  0999 V2000
    3.3523   -8.8951   35.2164 O   0  0  0  0  0  0  0  0  0  0  0  0
    2.4938   -8.3245   35.8792 C   0  0  0  0  0  0  0  0  0  0  0  0
    1.6477   -7.4003   35.2960 N   0  0  0  0  0  0  0  0  0  0  0  0
    0.5529   -7.1092   35.9234 C   0  0  0  0  0  0  0  0  0  0  0  0
   -0.4363   -5.8259   35.2959 S   0  0  0  0  0  0  0  0  0  0  0  0
   -0.1758   -5.8418   33.5944 C   0  0  0  0  0  0  0  0  0  0  0  0
    0.2583   -4.7167   32.9949 C   0  0  0  0  0  0  0  0  0  0  0  0
    0.2934   -4.6504   31.5451 C   0  0  0  0  0  0  0  0  0  0  0  0
    0.3401   -3.2932   30.9227 C   0  0  0  0  0  0  0  0  0  0  0  0
   -1.0840   -2.7816   30.7164 C   0  0  0  0  0  0  0  0  0  0  0  0
   -1.1081   -1.9079   29.5369 N   0  0  0  0  0  0  0  0  0  0  0  0
   -1.1387   -0.2812   29.9447 S   0  0  0  0  0  0  0  0  0  0  0  0
    0.0922    0.0212   30.6387 O   0  0  0  0  0  0  0  0  0  0  0  0
   -2.4321   -0.0834   30.5548 O   0  0  0  0  0  0  0  0  0  0  0  0
   -1.2008    0.6708   28.5049 C   0  0  0  0  0  0  0  0  0  0  0  0
   -1.7599    0.4736   27.2646 C   0  0  0  0  0  0  0  0  0  0  0  0
   -1.8291    1.7053   26.5706 C   0  0  0  0  0  0  0  0  0  0  0  0
   -1.1787    2.7271   27.1081 N   0  0  0  0  0  0  0  0  0  0  0  0
   -0.6277    2.2675   28.6017 S   0  0  0  0  0  0  0  0  0  0  0  0
    0.1111   -5.7525   30.7903 C   0  0  0  0  0  0  0  0  0  0  0  0
   -0.3836   -6.9286   31.4039 C   0  0  0  0  0  0  0  0  0  0  0  0
   -0.9015   -8.0200   30.8881 N   0  0  0  0  0  0  0  0  0  0  0  0
   -1.4298   -8.7460   31.9222 N   0  0  0  0  0  0  0  0  0  0  0  0
   -1.2119   -8.0883   33.0415 C   0  0  0  0  0  0  0  0  0  0  0  0
   -0.5499   -6.9207   32.7836 N   0  0  0  0  0  0  0  0  0  0  0  0
    0.0995   -7.6186   37.1116 N   0  0  0  0  0  0  0  0  0  0  0  0
    1.0189   -8.2564   37.8527 C   0  0  0  0  0  0  0  0  0  0  0  0
    0.9100   -8.6921   39.1893 C   0  0  0  0  0  0  0  0  0  0  0  0
    2.0834   -9.2922   39.6056 C   0  0  0  0  0  0  0  0  0  0  0  0
    3.2785   -9.3209   38.3657 S   0  0  0  0  0  0  0  0  0  0  0  0
    2.2213   -8.5679   37.2771 C   0  0  0  0  0  0  0  0  0  0  0  0
    0.5128   -3.8256   33.5639 H   0  0  0  0  0  0  0  0  0  0  0  0
    0.8685   -3.3569   29.9612 H   0  0  0  0  0  0  0  0  0  0  0  0
    0.9219   -2.5882   31.5287 H   0  0  0  0  0  0  0  0  0  0  0  0
   -1.7764   -3.5983   30.5200 H   0  0  0  0  0  0  0  0  0  0  0  0
   -1.4544   -2.2900   31.6232 H   0  0  0  0  0  0  0  0  0  0  0  0
   -1.8533   -2.1418   28.8712 H   0  0  0  0  0  0  0  0  0  0  0  0
   -2.1965   -0.4579   26.9311 H   0  0  0  0  0  0  0  0  0  0  0  0
   -2.3321    1.8884   25.6307 H   0  0  0  0  0  0  0  0  0  0  0  0
    0.1187   -5.7050   29.7080 H   0  0  0  0  0  0  0  0  0  0  0  0
   -1.5356   -8.3954   34.0265 H   0  0  0  0  0  0  0  0  0  0  0  0
   -0.8783   -7.4818   37.3779 H   0  0  0  0  0  0  0  0  0  0  0  0
    0.0302   -8.6046   39.8134 H   0  0  0  0  0  0  0  0  0  0  0  0
    2.2919   -9.7395   40.5679 H   0  0  0  0  0  0  0  0  0  0  0  0
  1  2  2  0
  2  3  1  0
  3  4  2  0
  4  5  1  0
  5  6  1  0
  6  7  2  0
  7  8  1  0
  8  9  1  0
  9 10  1  0
 10 11  1  0
 11 12  1  0
 12 13  2  0
 12 14  2  0
 12 15  1  0
 15 16  2  0
 16 17  1  0
 17 18  2  0
 18 19  1  0
  8 20  2  0
 20 21  1  0
 21 22  2  0
 22 23  1  0
 23 24  2  0
 24 25  1  0
  4 26  1  0
 26 27  1  0
 27 28  1  0
 28 29  2  0
 29 30  1  0
 30 31  1  0
 31  2  1  0
 25  6  1  0
 31 27  2  0
 19 15  1  0
 25 21  1  0
  7 32  1  0
  9 33  1  0
  9 34  1  0
 10 35  1  0
 10 36  1  0
 11 37  1  0
 16 38  1  0
 17 39  1  0
 20 40  1  0
 24 41  1  0
 26 42  1  0
 28 43  1  0
 29 44  1  0
M  END
>  <Energy>  (226) 
-64.775560663384752

>  <compound_id>  (226) 
2457

>  <target_id>  (226) 
1

>  <reference_id>  (226) 
167

>  <inspiration_ids>  (226) 
[167, 162]

>  <energy_score>  (226) 
-64.58045096987256

>  <distance_score>  (226) 
1.1944937730198597

>  <path>  (226) 
/opt/xchem-fragalysis-2/maxwin/BulkDock/SCRATCH/505736/C2457-P167/C2457-P167.minimised.mol

>  <scratch_subdir>  (226) 
/opt/xchem-fragalysis-2/maxwin/BulkDock/SCRATCH/505736/C2457-P167

>  <fragmenstein_runtime>  (226) 
3.1059675216674805

>  <fragmenstein_outcome>  (226) 
too moved

>  <fragmenstein_mode>  (226) 
expansion

>  <fragmenstein_error>  (226) 


$$$$
C2457-P162
     RDKit          3D

 44 48  0  0  0  0  0  0  0  0999 V2000
    3.5823   -8.3686   35.2405 O   0  0  0  0  0  0  0  0  0  0  0  0
    2.6703   -7.9136   35.9218 C   0  0  0  0  0  0  0  0  0  0  0  0
    1.6364   -7.2148   35.3277 N   0  0  0  0  0  0  0  0  0  0  0  0
    0.6305   -6.8699   36.0612 C   0  0  0  0  0  0  0  0  0  0  0  0
   -0.6480   -5.9298   35.3594 S   0  0  0  0  0  0  0  0  0  0  0  0
   -0.3048   -5.8795   33.6723 C   0  0  0  0  0  0  0  0  0  0  0  0
    0.1636   -4.7419   33.1280 C   0  0  0  0  0  0  0  0  0  0  0  0
    0.2570   -4.6314   31.6824 C   0  0  0  0  0  0  0  0  0  0  0  0
    0.4566   -3.2657   31.1268 C   0  0  0  0  0  0  0  0  0  0  0  0
   -0.8762   -2.5346   30.9989 C   0  0  0  0  0  0  0  0  0  0  0  0
   -0.5946   -1.2778   30.2966 N   0  0  0  0  0  0  0  0  0  0  0  0
   -1.9392   -0.6014   29.5538 S   0  0  0  0  0  0  0  0  0  0  0  0
   -2.6290    0.0881   30.6243 O   0  0  0  0  0  0  0  0  0  0  0  0
   -2.5684   -1.6195   28.7568 O   0  0  0  0  0  0  0  0  0  0  0  0
   -1.3592    0.6375   28.4807 C   0  0  0  0  0  0  0  0  0  0  0  0
   -0.3372    1.5619   28.5119 C   0  0  0  0  0  0  0  0  0  0  0  0
   -0.3788    2.3626   27.3372 C   0  0  0  0  0  0  0  0  0  0  0  0
   -1.3169    2.0788   26.4415 N   0  0  0  0  0  0  0  0  0  0  0  0
   -2.2328    0.8444   27.0383 S   0  0  0  0  0  0  0  0  0  0  0  0
    0.0522   -5.6946   30.8804 C   0  0  0  0  0  0  0  0  0  0  0  0
   -0.4642   -6.8876   31.4395 C   0  0  0  0  0  0  0  0  0  0  0  0
   -0.9737   -7.9618   30.8810 N   0  0  0  0  0  0  0  0  0  0  0  0
   -1.5075   -8.7280   31.8817 N   0  0  0  0  0  0  0  0  0  0  0  0
   -1.2914   -8.1155   33.0250 C   0  0  0  0  0  0  0  0  0  0  0  0
   -0.6507   -6.9290   32.8144 N   0  0  0  0  0  0  0  0  0  0  0  0
    0.4206   -7.1054   37.3936 N   0  0  0  0  0  0  0  0  0  0  0  0
    1.4151   -7.7152   38.0506 C   0  0  0  0  0  0  0  0  0  0  0  0
    1.4590   -8.0505   39.4209 C   0  0  0  0  0  0  0  0  0  0  0  0
    2.6541   -8.6680   39.7328 C   0  0  0  0  0  0  0  0  0  0  0  0
    3.6929   -8.8053   38.3670 S   0  0  0  0  0  0  0  0  0  0  0  0
    2.5344   -8.0851   37.3555 C   0  0  0  0  0  0  0  0  0  0  0  0
    0.4032   -3.8741   33.7371 H   0  0  0  0  0  0  0  0  0  0  0  0
    0.9340   -3.3330   30.1388 H   0  0  0  0  0  0  0  0  0  0  0  0
    1.1573   -2.6885   31.7446 H   0  0  0  0  0  0  0  0  0  0  0  0
   -1.5788   -3.1562   30.4359 H   0  0  0  0  0  0  0  0  0  0  0  0
   -1.3056   -2.3188   31.9834 H   0  0  0  0  0  0  0  0  0  0  0  0
   -0.1499   -0.5860   30.8989 H   0  0  0  0  0  0  0  0  0  0  0  0
    0.3716    1.6733   29.3190 H   0  0  0  0  0  0  0  0  0  0  0  0
    0.2902    3.1820   27.1044 H   0  0  0  0  0  0  0  0  0  0  0  0
    0.0989   -5.6096   29.8005 H   0  0  0  0  0  0  0  0  0  0  0  0
   -1.5919   -8.4740   33.9984 H   0  0  0  0  0  0  0  0  0  0  0  0
   -0.4373   -6.7766   37.8196 H   0  0  0  0  0  0  0  0  0  0  0  0
    0.6761   -7.8683   40.1456 H   0  0  0  0  0  0  0  0  0  0  0  0
    2.9777   -9.0399   40.6954 H   0  0  0  0  0  0  0  0  0  0  0  0
  1  2  2  0
  2  3  1  0
  3  4  2  0
  4  5  1  0
  5  6  1  0
  6  7  2  0
  7  8  1  0
  8  9  1  0
  9 10  1  0
 10 11  1  0
 11 12  1  0
 12 13  2  0
 12 14  2  0
 12 15  1  0
 15 16  2  0
 16 17  1  0
 17 18  2  0
 18 19  1  0
  8 20  2  0
 20 21  1  0
 21 22  2  0
 22 23  1  0
 23 24  2  0
 24 25  1  0
  4 26  1  0
 26 27  1  0
 27 28  1  0
 28 29  2  0
 29 30  1  0
 30 31  1  0
 31  2  1  0
 25  6  1  0
 31 27  2  0
 19 15  1  0
 25 21  1  0
  7 32  1  0
  9 33  1  0
  9 34  1  0
 10 35  1  0
 10 36  1  0
 11 37  1  0
 16 38  1  0
 17 39  1  0
 20 40  1  0
 24 41  1  0
 26 42  1  0
 28 43  1  0
 29 44  1  0
M  END
>  <Energy>  (227) 
-74.164389454929889

>  <compound_id>  (227) 
2457

>  <target_id>  (227) 
1

>  <reference_id>  (227) 
162

>  <inspiration_ids>  (227) 
[167, 162]

>  <energy_score>  (227) 
-73.96927976141778

>  <distance_score>  (227) 
1.1182631501377789

>  <path>  (227) 
/opt/xchem-fragalysis-2/maxwin/BulkDock/SCRATCH/505736/C2457-P162/C2457-P162.minimised.mol

>  <scratch_subdir>  (227) 
/opt/xchem-fragalysis-2/maxwin/BulkDock/SCRATCH/505736/C2457-P162

>  <fragmenstein_runtime>  (227) 
2.735469102859497

>  <fragmenstein_outcome>  (227) 
too moved

>  <fragmenstein_mode>  (227) 
expansion

>  <fragmenstein_error>  (227) 


$$$$
C2457-P167
     RDKit          2D

  0  0  0  0  0  0  0  0  0  0999 V2000
M  END
>  <compound_id>  (228) 
2457

>  <target_id>  (228) 
1

>  <reference_id>  (228) 
167

>  <inspiration_ids>  (228) 
[167, 163]

>  <energy_score>  (228) 
nan

>  <distance_score>  (228) 
nan

>  <path>  (228) 
/opt/xchem-fragalysis-2/maxwin/BulkDock/SCRATCH/505736/C2457-P167/C2457-P167.minimised.mol

>  <scratch_subdir>  (228) 
/opt/xchem-fragalysis-2/maxwin/BulkDock/SCRATCH/505736/C2457-P167

>  <fragmenstein_runtime>  (228) 
0.45638275146484375

>  <fragmenstein_outcome>  (228) 
too distant

>  <fragmenstein_mode>  (228) 
expansion

>  <fragmenstein_error>  (228) 
DistanceError: hit1

$$$$
C2482-P167
     RDKit          3D

 45 49  0  0  0  0  0  0  0  0999 V2000
    8.0002   -7.1796   30.3784 C   0  0  0  0  0  0  0  0  0  0  0  0
    7.2768   -7.1410   29.1300 N   0  0  0  0  0  0  0  0  0  0  0  0
    7.7135   -7.6069   27.9244 C   0  0  0  0  0  0  0  0  0  0  0  0
    6.7382   -7.2908   27.0071 C   0  0  0  0  0  0  0  0  0  0  0  0
    5.7418   -6.6501   27.7669 C   0  0  0  0  0  0  0  0  0  0  0  0
    4.1653   -6.1550   27.1890 S   0  0  0  0  0  0  0  0  0  0  0  0
    4.2891   -4.7582   26.8538 O   0  0  0  0  0  0  0  0  0  0  0  0
    3.7976   -7.1828   26.2445 O   0  0  0  0  0  0  0  0  0  0  0  0
    3.1732   -6.3835   28.5974 N   0  0  0  0  0  0  0  0  0  0  0  0
    2.5077   -5.2200   29.2653 C   0  0  0  0  0  0  0  0  0  0  0  0
    1.4858   -5.7203   30.3630 C   0  0  0  0  0  0  0  0  0  0  0  0
    1.3438   -5.1225   31.7302 C   0  0  0  0  0  0  0  0  0  0  0  0
    0.5375   -5.7006   32.6748 C   0  0  0  0  0  0  0  0  0  0  0  0
    0.3944   -5.0997   34.3140 S   0  0  0  0  0  0  0  0  0  0  0  0
    0.9810   -6.4554   35.2992 C   0  0  0  0  0  0  0  0  0  0  0  0
    1.9501   -7.1616   34.8086 N   0  0  0  0  0  0  0  0  0  0  0  0
    2.4862   -8.1764   35.5807 C   0  0  0  0  0  0  0  0  0  0  0  0
    3.2329   -9.0080   35.0777 O   0  0  0  0  0  0  0  0  0  0  0  0
    2.0500   -8.1780   36.9537 C   0  0  0  0  0  0  0  0  0  0  0  0
    2.7626   -9.0865   38.1954 S   0  0  0  0  0  0  0  0  0  0  0  0
    1.5320   -8.6145   39.2991 C   0  0  0  0  0  0  0  0  0  0  0  0
    0.6456   -7.7142   38.7363 C   0  0  0  0  0  0  0  0  0  0  0  0
    0.9818   -7.4432   37.3894 C   0  0  0  0  0  0  0  0  0  0  0  0
    0.3806   -6.5977   36.5284 N   0  0  0  0  0  0  0  0  0  0  0  0
   -0.2462   -6.8038   32.2981 N   0  0  0  0  0  0  0  0  0  0  0  0
   -1.1600   -7.5934   32.9509 C   0  0  0  0  0  0  0  0  0  0  0  0
   -1.6938   -8.4579   32.1145 N   0  0  0  0  0  0  0  0  0  0  0  0
   -1.1030   -8.2853   30.8940 N   0  0  0  0  0  0  0  0  0  0  0  0
   -0.2153   -7.3284   31.0259 C   0  0  0  0  0  0  0  0  0  0  0  0
    0.7342   -6.8141   30.1241 C   0  0  0  0  0  0  0  0  0  0  0  0
    6.0384   -6.6072   29.0850 N   0  0  0  0  0  0  0  0  0  0  0  0
    7.9397   -6.1938   30.8464 H   0  0  0  0  0  0  0  0  0  0  0  0
    9.0453   -7.4324   30.1834 H   0  0  0  0  0  0  0  0  0  0  0  0
    7.5452   -7.9371   31.0180 H   0  0  0  0  0  0  0  0  0  0  0  0
    8.6676   -8.1029   27.8125 H   0  0  0  0  0  0  0  0  0  0  0  0
    6.7247   -7.5070   25.9455 H   0  0  0  0  0  0  0  0  0  0  0  0
    3.8695   -6.7361   29.2710 H   0  0  0  0  0  0  0  0  0  0  0  0
    1.9605   -4.6216   28.5305 H   0  0  0  0  0  0  0  0  0  0  0  0
    3.2759   -4.6051   29.7456 H   0  0  0  0  0  0  0  0  0  0  0  0
    1.9537   -4.2526   31.9593 H   0  0  0  0  0  0  0  0  0  0  0  0
    1.5157   -9.0276   40.2987 H   0  0  0  0  0  0  0  0  0  0  0  0
   -0.1991   -7.3017   39.2711 H   0  0  0  0  0  0  0  0  0  0  0  0
   -0.4610   -6.0748   36.7391 H   0  0  0  0  0  0  0  0  0  0  0  0
   -1.4184   -7.5015   33.9963 H   0  0  0  0  0  0  0  0  0  0  0  0
    0.9500   -7.4400   29.2822 H   0  0  0  0  0  0  0  0  0  0  0  0
  1  2  1  0
  2  3  1  0
  3  4  2  0
  4  5  1  0
  5  6  1  0
  6  7  2  0
  6  8  2  0
  6  9  1  0
  9 10  1  0
 10 11  1  0
 11 12  1  0
 12 13  2  0
 13 14  1  0
 14 15  1  0
 15 16  2  0
 16 17  1  0
 17 18  2  0
 17 19  1  0
 19 20  1  0
 20 21  1  0
 21 22  2  0
 22 23  1  0
 23 24  1  0
 13 25  1  0
 25 26  1  0
 26 27  2  0
 27 28  1  0
 28 29  2  0
 29 30  1  0
  5 31  2  0
 31  2  1  0
 30 11  2  0
 24 15  1  0
 29 25  1  0
 23 19  2  0
  1 32  1  0
  1 33  1  0
  1 34  1  0
  3 35  1  0
  4 36  1  0
  9 37  1  0
 10 38  1  0
 10 39  1  0
 12 40  1  0
 21 41  1  0
 22 42  1  0
 24 43  1  0
 26 44  1  0
 30 45  1  0
M  END
>  <Energy>  (229) 
2.9115613091478005

>  <compound_id>  (229) 
2482

>  <target_id>  (229) 
1

>  <reference_id>  (229) 
167

>  <inspiration_ids>  (229) 
[167, 175]

>  <energy_score>  (229) 
-47.30736635791865

>  <distance_score>  (229) 
1.4397403468111567

>  <path>  (229) 
/opt/xchem-fragalysis-2/maxwin/BulkDock/SCRATCH/505736/C2482-P167/C2482-P167.minimised.mol

>  <scratch_subdir>  (229) 
/opt/xchem-fragalysis-2/maxwin/BulkDock/SCRATCH/505736/C2482-P167

>  <fragmenstein_runtime>  (229) 
2.867799997329712

>  <fragmenstein_outcome>  (229) 
too moved

>  <fragmenstein_mode>  (229) 
expansion

>  <fragmenstein_error>  (229) 


$$$$
C2482-P175
     RDKit          3D

 45 49  0  0  0  0  0  0  0  0999 V2000
    8.1368   -7.4062   30.2362 C   0  0  0  0  0  0  0  0  0  0  0  0
    7.3827   -7.2758   29.0117 N   0  0  0  0  0  0  0  0  0  0  0  0
    7.7803   -7.6952   27.7758 C   0  0  0  0  0  0  0  0  0  0  0  0
    6.7849   -7.3303   26.8994 C   0  0  0  0  0  0  0  0  0  0  0  0
    5.8187   -6.7094   27.7117 C   0  0  0  0  0  0  0  0  0  0  0  0
    4.2380   -6.1513   27.1972 S   0  0  0  0  0  0  0  0  0  0  0  0
    4.4116   -4.7529   26.8943 O   0  0  0  0  0  0  0  0  0  0  0  0
    3.8191   -7.1433   26.2357 O   0  0  0  0  0  0  0  0  0  0  0  0
    3.3065   -6.3831   28.6423 N   0  0  0  0  0  0  0  0  0  0  0  0
    2.5727   -5.2441   29.2742 C   0  0  0  0  0  0  0  0  0  0  0  0
    1.5800   -5.7582   30.3915 C   0  0  0  0  0  0  0  0  0  0  0  0
    1.3642   -5.0627   31.7033 C   0  0  0  0  0  0  0  0  0  0  0  0
    0.5219   -5.5848   32.6468 C   0  0  0  0  0  0  0  0  0  0  0  0
    0.3082   -4.9011   34.2464 S   0  0  0  0  0  0  0  0  0  0  0  0
    0.9821   -6.1611   35.3046 C   0  0  0  0  0  0  0  0  0  0  0  0
    1.9506   -6.8735   34.8248 N   0  0  0  0  0  0  0  0  0  0  0  0
    2.5688   -7.7960   35.6465 C   0  0  0  0  0  0  0  0  0  0  0  0
    3.3558   -8.6110   35.1774 O   0  0  0  0  0  0  0  0  0  0  0  0
    2.1845   -7.7077   37.0364 C   0  0  0  0  0  0  0  0  0  0  0  0
    3.0007   -8.4609   38.3221 S   0  0  0  0  0  0  0  0  0  0  0  0
    1.8008   -7.9466   39.4397 C   0  0  0  0  0  0  0  0  0  0  0  0
    0.8529   -7.1323   38.8467 C   0  0  0  0  0  0  0  0  0  0  0  0
    1.1065   -6.9789   37.4621 C   0  0  0  0  0  0  0  0  0  0  0  0
    0.4341   -6.2241   36.5670 N   0  0  0  0  0  0  0  0  0  0  0  0
   -0.2353   -6.7153   32.3073 N   0  0  0  0  0  0  0  0  0  0  0  0
   -1.2110   -7.4299   32.9523 C   0  0  0  0  0  0  0  0  0  0  0  0
   -1.7184   -8.3359   32.1458 N   0  0  0  0  0  0  0  0  0  0  0  0
   -1.0188   -8.2938   30.9724 N   0  0  0  0  0  0  0  0  0  0  0  0
   -0.1124   -7.3523   31.0957 C   0  0  0  0  0  0  0  0  0  0  0  0
    0.9028   -6.9141   30.2258 C   0  0  0  0  0  0  0  0  0  0  0  0
    6.1491   -6.7293   29.0230 N   0  0  0  0  0  0  0  0  0  0  0  0
    7.8230   -6.6263   30.9346 H   0  0  0  0  0  0  0  0  0  0  0  0
    9.2000   -7.2923   30.0101 H   0  0  0  0  0  0  0  0  0  0  0  0
    7.9402   -8.3968   30.6523 H   0  0  0  0  0  0  0  0  0  0  0  0
    8.7252   -8.1973   27.6184 H   0  0  0  0  0  0  0  0  0  0  0  0
    6.7427   -7.5017   25.8305 H   0  0  0  0  0  0  0  0  0  0  0  0
    4.0413   -6.6589   29.3104 H   0  0  0  0  0  0  0  0  0  0  0  0
    1.9995   -4.6909   28.5246 H   0  0  0  0  0  0  0  0  0  0  0  0
    3.3070   -4.5747   29.7353 H   0  0  0  0  0  0  0  0  0  0  0  0
    1.9592   -4.1749   31.9003 H   0  0  0  0  0  0  0  0  0  0  0  0
    1.8636   -8.2444   40.4774 H   0  0  0  0  0  0  0  0  0  0  0  0
    0.0361   -6.6796   39.3944 H   0  0  0  0  0  0  0  0  0  0  0  0
   -0.2907   -5.5604   36.8160 H   0  0  0  0  0  0  0  0  0  0  0  0
   -1.5290   -7.2496   33.9676 H   0  0  0  0  0  0  0  0  0  0  0  0
    1.1564   -7.6006   29.4414 H   0  0  0  0  0  0  0  0  0  0  0  0
  1  2  1  0
  2  3  1  0
  3  4  2  0
  4  5  1  0
  5  6  1  0
  6  7  2  0
  6  8  2  0
  6  9  1  0
  9 10  1  0
 10 11  1  0
 11 12  1  0
 12 13  2  0
 13 14  1  0
 14 15  1  0
 15 16  2  0
 16 17  1  0
 17 18  2  0
 17 19  1  0
 19 20  1  0
 20 21  1  0
 21 22  2  0
 22 23  1  0
 23 24  1  0
 13 25  1  0
 25 26  1  0
 26 27  2  0
 27 28  1  0
 28 29  2  0
 29 30  1  0
  5 31  2  0
 31  2  1  0
 30 11  2  0
 24 15  1  0
 29 25  1  0
 23 19  2  0
  1 32  1  0
  1 33  1  0
  1 34  1  0
  3 35  1  0
  4 36  1  0
  9 37  1  0
 10 38  1  0
 10 39  1  0
 12 40  1  0
 21 41  1  0
 22 42  1  0
 24 43  1  0
 26 44  1  0
 30 45  1  0
M  END
>  <Energy>  (230) 
2.5411435174666757

>  <compound_id>  (230) 
2482

>  <target_id>  (230) 
1

>  <reference_id>  (230) 
175

>  <inspiration_ids>  (230) 
[167, 175]

>  <energy_score>  (230) 
-47.677784149599475

>  <distance_score>  (230) 
1.5063560846634116

>  <path>  (230) 
/opt/xchem-fragalysis-2/maxwin/BulkDock/SCRATCH/505736/C2482-P175/C2482-P175.minimised.mol

>  <scratch_subdir>  (230) 
/opt/xchem-fragalysis-2/maxwin/BulkDock/SCRATCH/505736/C2482-P175

>  <fragmenstein_runtime>  (230) 
2.71136212348938

>  <fragmenstein_outcome>  (230) 
too moved

>  <fragmenstein_mode>  (230) 
expansion

>  <fragmenstein_error>  (230) 


$$$$
C2482-P167
     RDKit          3D

 45 49  0  0  0  0  0  0  0  0999 V2000
   -0.8525   -3.1959   28.6064 C   0  0  0  0  0  0  0  0  0  0  0  0
    0.5087   -2.7932   28.3780 N   0  0  0  0  0  0  0  0  0  0  0  0
    1.0110   -1.5274   28.3234 C   0  0  0  0  0  0  0  0  0  0  0  0
    2.3590   -1.6505   28.0640 C   0  0  0  0  0  0  0  0  0  0  0  0
    2.5671   -3.0370   27.9748 C   0  0  0  0  0  0  0  0  0  0  0  0
    4.1046   -3.8425   27.9525 S   0  0  0  0  0  0  0  0  0  0  0  0
    4.2129   -4.4855   26.6654 O   0  0  0  0  0  0  0  0  0  0  0  0
    5.0654   -2.8971   28.4732 O   0  0  0  0  0  0  0  0  0  0  0  0
    3.8868   -5.0419   29.1343 N   0  0  0  0  0  0  0  0  0  0  0  0
    3.3226   -4.5000   30.4105 C   0  0  0  0  0  0  0  0  0  0  0  0
    2.0432   -5.2205   30.9392 C   0  0  0  0  0  0  0  0  0  0  0  0
    1.6584   -4.9980   32.3647 C   0  0  0  0  0  0  0  0  0  0  0  0
    0.6527   -5.7029   32.9467 C   0  0  0  0  0  0  0  0  0  0  0  0
    0.1435   -5.4254   34.5940 S   0  0  0  0  0  0  0  0  0  0  0  0
    0.8650   -6.7633   35.4855 C   0  0  0  0  0  0  0  0  0  0  0  0
    1.9480   -7.2800   34.9974 N   0  0  0  0  0  0  0  0  0  0  0  0
    2.5918   -8.2612   35.7264 C   0  0  0  0  0  0  0  0  0  0  0  0
    3.4262   -8.9842   35.1958 O   0  0  0  0  0  0  0  0  0  0  0  0
    2.1454   -8.3717   37.0921 C   0  0  0  0  0  0  0  0  0  0  0  0
    2.9655   -9.2042   38.3194 S   0  0  0  0  0  0  0  0  0  0  0  0
    1.6591   -8.9558   39.4112 C   0  0  0  0  0  0  0  0  0  0  0  0
    0.6464   -8.1997   38.8502 C   0  0  0  0  0  0  0  0  0  0  0  0
    0.9615   -7.8380   37.5219 C   0  0  0  0  0  0  0  0  0  0  0  0
    0.2423   -7.0849   36.6680 N   0  0  0  0  0  0  0  0  0  0  0  0
   -0.0469   -6.6253   32.1603 N   0  0  0  0  0  0  0  0  0  0  0  0
   -1.0418   -7.5282   32.4454 C   0  0  0  0  0  0  0  0  0  0  0  0
   -1.4332   -8.1363   31.3473 N   0  0  0  0  0  0  0  0  0  0  0  0
   -0.6636   -7.6632   30.3117 N   0  0  0  0  0  0  0  0  0  0  0  0
    0.1842   -6.7808   30.8016 C   0  0  0  0  0  0  0  0  0  0  0  0
    1.2588   -6.0476   30.2094 C   0  0  0  0  0  0  0  0  0  0  0  0
    1.4336   -3.7350   28.1820 N   0  0  0  0  0  0  0  0  0  0  0  0
   -0.9832   -3.3334   29.6829 H   0  0  0  0  0  0  0  0  0  0  0  0
   -1.5196   -2.4076   28.2509 H   0  0  0  0  0  0  0  0  0  0  0  0
   -1.0455   -4.1299   28.0893 H   0  0  0  0  0  0  0  0  0  0  0  0
    0.3801   -0.6599   28.4592 H   0  0  0  0  0  0  0  0  0  0  0  0
    3.0893   -0.8573   27.9800 H   0  0  0  0  0  0  0  0  0  0  0  0
    4.7767   -5.5216   29.2661 H   0  0  0  0  0  0  0  0  0  0  0  0
    3.1359   -3.4227   30.3979 H   0  0  0  0  0  0  0  0  0  0  0  0
    4.1107   -4.6380   31.1634 H   0  0  0  0  0  0  0  0  0  0  0  0
    2.2161   -4.2488   32.9211 H   0  0  0  0  0  0  0  0  0  0  0  0
    1.6897   -9.3941   40.3996 H   0  0  0  0  0  0  0  0  0  0  0  0
   -0.2679   -7.9518   39.3719 H   0  0  0  0  0  0  0  0  0  0  0  0
   -0.7171   -6.7931   36.8415 H   0  0  0  0  0  0  0  0  0  0  0  0
   -1.4413   -7.7017   33.4351 H   0  0  0  0  0  0  0  0  0  0  0  0
    1.4913   -6.2327   29.1681 H   0  0  0  0  0  0  0  0  0  0  0  0
  1  2  1  0
  2  3  1  0
  3  4  2  0
  4  5  1  0
  5  6  1  0
  6  7  2  0
  6  8  2  0
  6  9  1  0
  9 10  1  0
 10 11  1  0
 11 12  1  0
 12 13  2  0
 13 14  1  0
 14 15  1  0
 15 16  2  0
 16 17  1  0
 17 18  2  0
 17 19  1  0
 19 20  1  0
 20 21  1  0
 21 22  2  0
 22 23  1  0
 23 24  1  0
 13 25  1  0
 25 26  1  0
 26 27  2  0
 27 28  1  0
 28 29  2  0
 29 30  1  0
  5 31  2  0
 31  2  1  0
 30 11  2  0
 24 15  1  0
 29 25  1  0
 23 19  2  0
  1 32  1  0
  1 33  1  0
  1 34  1  0
  3 35  1  0
  4 36  1  0
  9 37  1  0
 10 38  1  0
 10 39  1  0
 12 40  1  0
 21 41  1  0
 22 42  1  0
 24 43  1  0
 26 44  1  0
 30 45  1  0
M  END
>  <Energy>  (231) 
5.3369819262476534

>  <compound_id>  (231) 
2482

>  <target_id>  (231) 
1

>  <reference_id>  (231) 
167

>  <inspiration_ids>  (231) 
[167, 177]

>  <energy_score>  (231) 
-56.242892722692346

>  <distance_score>  (231) 
2.012725963863377

>  <path>  (231) 
/opt/xchem-fragalysis-2/maxwin/BulkDock/SCRATCH/505736/C2482-P167/C2482-P167.minimised.mol

>  <scratch_subdir>  (231) 
/opt/xchem-fragalysis-2/maxwin/BulkDock/SCRATCH/505736/C2482-P167

>  <fragmenstein_runtime>  (231) 
3.260432243347168

>  <fragmenstein_outcome>  (231) 
too moved

>  <fragmenstein_mode>  (231) 
expansion

>  <fragmenstein_error>  (231) 


$$$$
C2482-P177
     RDKit          3D

 45 49  0  0  0  0  0  0  0  0999 V2000
   -0.8325   -2.8628   27.8500 C   0  0  0  0  0  0  0  0  0  0  0  0
    0.3868   -2.1497   28.1181 N   0  0  0  0  0  0  0  0  0  0  0  0
    0.8661   -1.0465   27.4999 C   0  0  0  0  0  0  0  0  0  0  0  0
    2.2384   -1.1164   27.6095 C   0  0  0  0  0  0  0  0  0  0  0  0
    2.4423   -2.1731   28.5076 C   0  0  0  0  0  0  0  0  0  0  0  0
    3.9396   -2.9792   28.8540 S   0  0  0  0  0  0  0  0  0  0  0  0
    4.1687   -2.7744   30.2668 O   0  0  0  0  0  0  0  0  0  0  0  0
    4.8741   -2.5510   27.8398 O   0  0  0  0  0  0  0  0  0  0  0  0
    3.6521   -4.6129   28.5888 N   0  0  0  0  0  0  0  0  0  0  0  0
    2.2535   -5.0807   28.4371 C   0  0  0  0  0  0  0  0  0  0  0  0
    1.3132   -5.3440   29.7033 C   0  0  0  0  0  0  0  0  0  0  0  0
    1.4787   -4.8825   31.1342 C   0  0  0  0  0  0  0  0  0  0  0  0
    0.7142   -5.3971   32.1494 C   0  0  0  0  0  0  0  0  0  0  0  0
    0.6553   -4.7348   33.7812 S   0  0  0  0  0  0  0  0  0  0  0  0
    1.2499   -5.9994   34.8654 C   0  0  0  0  0  0  0  0  0  0  0  0
    2.2494   -6.7024   34.4475 N   0  0  0  0  0  0  0  0  0  0  0  0
    2.8804   -7.5572   35.3281 C   0  0  0  0  0  0  0  0  0  0  0  0
    3.7446   -8.3272   34.9248 O   0  0  0  0  0  0  0  0  0  0  0  0
    2.3918   -7.4854   36.6908 C   0  0  0  0  0  0  0  0  0  0  0  0
    3.1381   -8.2187   38.0329 S   0  0  0  0  0  0  0  0  0  0  0  0
    1.8370   -7.7640   39.0598 C   0  0  0  0  0  0  0  0  0  0  0  0
    0.9143   -6.9675   38.4054 C   0  0  0  0  0  0  0  0  0  0  0  0
    1.2590   -6.8001   37.0400 C   0  0  0  0  0  0  0  0  0  0  0  0
    0.6241   -6.0691   36.0961 N   0  0  0  0  0  0  0  0  0  0  0  0
   -0.2138   -6.3911   31.8210 N   0  0  0  0  0  0  0  0  0  0  0  0
   -1.0511   -7.1712   32.5791 C   0  0  0  0  0  0  0  0  0  0  0  0
   -1.7514   -7.9713   31.8101 N   0  0  0  0  0  0  0  0  0  0  0  0
   -1.3989   -7.7147   30.5131 N   0  0  0  0  0  0  0  0  0  0  0  0
   -0.4797   -6.7738   30.5203 C   0  0  0  0  0  0  0  0  0  0  0  0
    0.2565   -6.1714   29.4624 C   0  0  0  0  0  0  0  0  0  0  0  0
    1.2684   -2.6532   28.9678 N   0  0  0  0  0  0  0  0  0  0  0  0
   -0.5807   -3.7832   27.3196 H   0  0  0  0  0  0  0  0  0  0  0  0
   -1.4707   -2.2250   27.2329 H   0  0  0  0  0  0  0  0  0  0  0  0
   -1.3173   -3.0755   28.8063 H   0  0  0  0  0  0  0  0  0  0  0  0
    0.2070   -0.3749   26.9852 H   0  0  0  0  0  0  0  0  0  0  0  0
    2.9759   -0.5047   27.1058 H   0  0  0  0  0  0  0  0  0  0  0  0
    4.2445   -4.9006   27.8056 H   0  0  0  0  0  0  0  0  0  0  0  0
    1.7342   -4.5650   27.6248 H   0  0  0  0  0  0  0  0  0  0  0  0
    2.3967   -6.0811   28.0033 H   0  0  0  0  0  0  0  0  0  0  0  0
    2.1789   -4.0699   31.3079 H   0  0  0  0  0  0  0  0  0  0  0  0
    1.8310   -8.0804   40.0946 H   0  0  0  0  0  0  0  0  0  0  0  0
    0.0492   -6.5420   38.8981 H   0  0  0  0  0  0  0  0  0  0  0  0
   -0.0795   -5.3698   36.3119 H   0  0  0  0  0  0  0  0  0  0  0  0
   -1.1098   -7.1338   33.6556 H   0  0  0  0  0  0  0  0  0  0  0  0
    0.0579   -6.5524   28.4643 H   0  0  0  0  0  0  0  0  0  0  0  0
  1  2  1  0
  2  3  1  0
  3  4  2  0
  4  5  1  0
  5  6  1  0
  6  7  2  0
  6  8  2  0
  6  9  1  0
  9 10  1  0
 10 11  1  0
 11 12  1  0
 12 13  2  0
 13 14  1  0
 14 15  1  0
 15 16  2  0
 16 17  1  0
 17 18  2  0
 17 19  1  0
 19 20  1  0
 20 21  1  0
 21 22  2  0
 22 23  1  0
 23 24  1  0
 13 25  1  0
 25 26  1  0
 26 27  2  0
 27 28  1  0
 28 29  2  0
 29 30  1  0
  5 31  2  0
 31  2  1  0
 30 11  2  0
 24 15  1  0
 29 25  1  0
 23 19  2  0
  1 32  1  0
  1 33  1  0
  1 34  1  0
  3 35  1  0
  4 36  1  0
  9 37  1  0
 10 38  1  0
 10 39  1  0
 12 40  1  0
 21 41  1  0
 22 42  1  0
 24 43  1  0
 26 44  1  0
 30 45  1  0
M  END
>  <Energy>  (232) 
33.482262973476409

>  <compound_id>  (232) 
2482

>  <target_id>  (232) 
1

>  <reference_id>  (232) 
177

>  <inspiration_ids>  (232) 
[167, 177]

>  <energy_score>  (232) 
-28.09761167546222

>  <distance_score>  (232) 
1.9837665042160562

>  <path>  (232) 
/opt/xchem-fragalysis-2/maxwin/BulkDock/SCRATCH/505736/C2482-P177/C2482-P177.minimised.mol

>  <scratch_subdir>  (232) 
/opt/xchem-fragalysis-2/maxwin/BulkDock/SCRATCH/505736/C2482-P177

>  <fragmenstein_runtime>  (232) 
3.386852264404297

>  <fragmenstein_outcome>  (232) 
too moved

>  <fragmenstein_mode>  (232) 
expansion

>  <fragmenstein_error>  (232) 


$$$$
C2461-P167
     RDKit          3D

 41 45  0  0  0  0  0  0  0  0999 V2000
    3.3164   -8.8269   35.1483 O   0  0  0  0  0  0  0  0  0  0  0  0
    2.4748   -8.2659   35.8404 C   0  0  0  0  0  0  0  0  0  0  0  0
    1.6212   -7.3217   35.2975 N   0  0  0  0  0  0  0  0  0  0  0  0
    0.5307   -7.0651   35.9466 C   0  0  0  0  0  0  0  0  0  0  0  0
   -0.4914   -5.7724   35.3926 S   0  0  0  0  0  0  0  0  0  0  0  0
   -0.2429   -5.6311   33.6894 C   0  0  0  0  0  0  0  0  0  0  0  0
    0.0800   -4.4218   33.1877 C   0  0  0  0  0  0  0  0  0  0  0  0
    0.1138   -4.1799   31.7401 C   0  0  0  0  0  0  0  0  0  0  0  0
    0.3347   -2.7376   31.3441 C   0  0  0  0  0  0  0  0  0  0  0  0
   -0.6759   -2.1777   30.4440 N   0  0  0  0  0  0  0  0  0  0  0  0
   -0.3673   -2.1335   28.7938 S   0  0  0  0  0  0  0  0  0  0  0  0
   -0.7863   -3.4244   28.3082 O   0  0  0  0  0  0  0  0  0  0  0  0
   -0.8402   -0.8641   28.2926 O   0  0  0  0  0  0  0  0  0  0  0  0
    1.3649   -2.1489   28.5929 C   0  0  0  0  0  0  0  0  0  0  0  0
    2.1195   -1.0369   28.2946 C   0  0  0  0  0  0  0  0  0  0  0  0
    3.7783   -1.4338   28.4115 S   0  0  0  0  0  0  0  0  0  0  0  0
    3.3770   -3.0423   28.8354 C   0  0  0  0  0  0  0  0  0  0  0  0
    2.0969   -3.3108   28.9192 N   0  0  0  0  0  0  0  0  0  0  0  0
   -0.0349   -5.2291   30.9011 C   0  0  0  0  0  0  0  0  0  0  0  0
   -0.4081   -6.5087   31.4104 C   0  0  0  0  0  0  0  0  0  0  0  0
   -0.7850   -7.6166   30.8068 N   0  0  0  0  0  0  0  0  0  0  0  0
   -1.2175   -8.4916   31.7729 N   0  0  0  0  0  0  0  0  0  0  0  0
   -1.0687   -7.9097   32.9434 C   0  0  0  0  0  0  0  0  0  0  0  0
   -0.5389   -6.6565   32.7871 N   0  0  0  0  0  0  0  0  0  0  0  0
    0.0957   -7.6228   37.1206 N   0  0  0  0  0  0  0  0  0  0  0  0
    1.0339   -8.2590   37.8378 C   0  0  0  0  0  0  0  0  0  0  0  0
    0.9516   -8.7187   39.1679 C   0  0  0  0  0  0  0  0  0  0  0  0
    2.1404   -9.3075   39.5557 C   0  0  0  0  0  0  0  0  0  0  0  0
    3.3157   -9.2981   38.2962 S   0  0  0  0  0  0  0  0  0  0  0  0
    2.2311   -8.5412   37.2380 C   0  0  0  0  0  0  0  0  0  0  0  0
    0.2578   -3.5804   33.8539 H   0  0  0  0  0  0  0  0  0  0  0  0
    1.3683   -2.5586   31.0548 H   0  0  0  0  0  0  0  0  0  0  0  0
    0.2367   -2.1092   32.2418 H   0  0  0  0  0  0  0  0  0  0  0  0
   -1.6344   -2.4765   30.6109 H   0  0  0  0  0  0  0  0  0  0  0  0
    1.7783   -0.0412   28.0440 H   0  0  0  0  0  0  0  0  0  0  0  0
    4.1425   -3.7832   29.0267 H   0  0  0  0  0  0  0  0  0  0  0  0
    0.0329   -5.1197   29.8251 H   0  0  0  0  0  0  0  0  0  0  0  0
   -1.3439   -8.3357   33.8983 H   0  0  0  0  0  0  0  0  0  0  0  0
   -0.8789   -7.4988   37.4044 H   0  0  0  0  0  0  0  0  0  0  0  0
    0.0802   -8.6554   39.8069 H   0  0  0  0  0  0  0  0  0  0  0  0
    2.3706   -9.7678   40.5069 H   0  0  0  0  0  0  0  0  0  0  0  0
  1  2  2  0
  2  3  1  0
  3  4  2  0
  4  5  1  0
  5  6  1  0
  6  7  2  0
  7  8  1  0
  8  9  1  0
  9 10  1  0
 10 11  1  0
 11 12  2  0
 11 13  2  0
 11 14  1  0
 14 15  2  0
 15 16  1  0
 16 17  1  0
 17 18  2  0
  8 19  2  0
 19 20  1  0
 20 21  2  0
 21 22  1  0
 22 23  2  0
 23 24  1  0
  4 25  1  0
 25 26  1  0
 26 27  1  0
 27 28  2  0
 28 29  1  0
 29 30  1  0
 30  2  1  0
 24  6  1  0
 30 26  2  0
 18 14  1  0
 24 20  1  0
  7 31  1  0
  9 32  1  0
  9 33  1  0
 10 34  1  0
 15 35  1  0
 17 36  1  0
 19 37  1  0
 23 38  1  0
 25 39  1  0
 27 40  1  0
 28 41  1  0
M  END
>  <Energy>  (233) 
-19.129266519760591

>  <compound_id>  (233) 
2461

>  <target_id>  (233) 
1

>  <reference_id>  (233) 
167

>  <inspiration_ids>  (233) 
[167, 180]

>  <energy_score>  (233) 
-72.36681961326688

>  <distance_score>  (233) 
1.208949891864623

>  <path>  (233) 
/opt/xchem-fragalysis-2/maxwin/BulkDock/SCRATCH/505736/C2461-P167/C2461-P167.minimised.mol

>  <scratch_subdir>  (233) 
/opt/xchem-fragalysis-2/maxwin/BulkDock/SCRATCH/505736/C2461-P167

>  <fragmenstein_runtime>  (233) 
1.7562954425811768

>  <fragmenstein_outcome>  (233) 
too moved

>  <fragmenstein_mode>  (233) 
expansion

>  <fragmenstein_error>  (233) 


$$$$
C2461-P180
     RDKit          3D

 41 45  0  0  0  0  0  0  0  0999 V2000
    3.2006   -8.3865   35.0318 O   0  0  0  0  0  0  0  0  0  0  0  0
    2.3872   -7.8178   35.7538 C   0  0  0  0  0  0  0  0  0  0  0  0
    1.3683   -7.0573   35.2025 N   0  0  0  0  0  0  0  0  0  0  0  0
    0.4132   -6.6541   35.9756 C   0  0  0  0  0  0  0  0  0  0  0  0
   -0.8850   -5.6801   35.3190 S   0  0  0  0  0  0  0  0  0  0  0  0
   -0.5408   -5.4999   33.6314 C   0  0  0  0  0  0  0  0  0  0  0  0
   -0.2442   -4.2807   33.1402 C   0  0  0  0  0  0  0  0  0  0  0  0
   -0.1160   -4.0570   31.6914 C   0  0  0  0  0  0  0  0  0  0  0  0
    0.0567   -2.6084   31.2901 C   0  0  0  0  0  0  0  0  0  0  0  0
   -0.8270   -2.1610   30.2181 N   0  0  0  0  0  0  0  0  0  0  0  0
   -0.2496   -2.0835   28.6473 S   0  0  0  0  0  0  0  0  0  0  0  0
   -0.5495   -3.3703   28.0747 O   0  0  0  0  0  0  0  0  0  0  0  0
   -0.6555   -0.8159   28.0866 O   0  0  0  0  0  0  0  0  0  0  0  0
    1.4911   -2.0849   28.6787 C   0  0  0  0  0  0  0  0  0  0  0  0
    2.2820   -1.0482   28.2412 C   0  0  0  0  0  0  0  0  0  0  0  0
    3.9223   -1.4319   28.5332 S   0  0  0  0  0  0  0  0  0  0  0  0
    3.4665   -2.9396   29.2014 C   0  0  0  0  0  0  0  0  0  0  0  0
    2.1793   -3.1809   29.2411 N   0  0  0  0  0  0  0  0  0  0  0  0
   -0.1770   -5.1173   30.8537 C   0  0  0  0  0  0  0  0  0  0  0  0
   -0.5198   -6.4073   31.3534 C   0  0  0  0  0  0  0  0  0  0  0  0
   -0.8266   -7.5362   30.7470 N   0  0  0  0  0  0  0  0  0  0  0  0
   -1.2442   -8.4270   31.7041 N   0  0  0  0  0  0  0  0  0  0  0  0
   -1.1566   -7.8285   32.8701 C   0  0  0  0  0  0  0  0  0  0  0  0
   -0.7108   -6.5456   32.7208 N   0  0  0  0  0  0  0  0  0  0  0  0
    0.2556   -6.8796   37.3190 N   0  0  0  0  0  0  0  0  0  0  0  0
    1.2664   -7.5054   37.9397 C   0  0  0  0  0  0  0  0  0  0  0  0
    1.3681   -7.8239   39.3115 C   0  0  0  0  0  0  0  0  0  0  0  0
    2.5613   -8.4670   39.5772 C   0  0  0  0  0  0  0  0  0  0  0  0
    3.5406   -8.6269   38.1714 S   0  0  0  0  0  0  0  0  0  0  0  0
    2.3368   -7.9270   37.1982 C   0  0  0  0  0  0  0  0  0  0  0  0
   -0.1487   -3.4238   33.8039 H   0  0  0  0  0  0  0  0  0  0  0  0
    1.1055   -2.3405   31.1722 H   0  0  0  0  0  0  0  0  0  0  0  0
   -0.2524   -1.9780   32.1374 H   0  0  0  0  0  0  0  0  0  0  0  0
   -1.7598   -2.5682   30.2095 H   0  0  0  0  0  0  0  0  0  0  0  0
    1.9769   -0.1146   27.7870 H   0  0  0  0  0  0  0  0  0  0  0  0
    4.2040   -3.6414   29.5688 H   0  0  0  0  0  0  0  0  0  0  0  0
   -0.0601   -5.0146   29.7811 H   0  0  0  0  0  0  0  0  0  0  0  0
   -1.4203   -8.2538   33.8240 H   0  0  0  0  0  0  0  0  0  0  0  0
   -0.5353   -6.4615   37.7956 H   0  0  0  0  0  0  0  0  0  0  0  0
    0.6237   -7.6229   40.0717 H   0  0  0  0  0  0  0  0  0  0  0  0
    2.9137   -8.8441   40.5282 H   0  0  0  0  0  0  0  0  0  0  0  0
  1  2  2  0
  2  3  1  0
  3  4  2  0
  4  5  1  0
  5  6  1  0
  6  7  2  0
  7  8  1  0
  8  9  1  0
  9 10  1  0
 10 11  1  0
 11 12  2  0
 11 13  2  0
 11 14  1  0
 14 15  2  0
 15 16  1  0
 16 17  1  0
 17 18  2  0
  8 19  2  0
 19 20  1  0
 20 21  2  0
 21 22  1  0
 22 23  2  0
 23 24  1  0
  4 25  1  0
 25 26  1  0
 26 27  1  0
 27 28  2  0
 28 29  1  0
 29 30  1  0
 30  2  1  0
 24  6  1  0
 30 26  2  0
 18 14  1  0
 24 20  1  0
  7 31  1  0
  9 32  1  0
  9 33  1  0
 10 34  1  0
 15 35  1  0
 17 36  1  0
 19 37  1  0
 23 38  1  0
 25 39  1  0
 27 40  1  0
 28 41  1  0
M  END
>  <Energy>  (234) 
-24.901305227011775

>  <compound_id>  (234) 
2461

>  <target_id>  (234) 
1

>  <reference_id>  (234) 
180

>  <inspiration_ids>  (234) 
[167, 180]

>  <energy_score>  (234) 
-78.13885832051827

>  <distance_score>  (234) 
1.279055575362889

>  <path>  (234) 
/opt/xchem-fragalysis-2/maxwin/BulkDock/SCRATCH/505736/C2461-P180/C2461-P180.minimised.mol

>  <scratch_subdir>  (234) 
/opt/xchem-fragalysis-2/maxwin/BulkDock/SCRATCH/505736/C2461-P180

>  <fragmenstein_runtime>  (234) 
1.746840476989746

>  <fragmenstein_outcome>  (234) 
too moved

>  <fragmenstein_mode>  (234) 
expansion

>  <fragmenstein_error>  (234) 


$$$$
C2483-P167
     RDKit          3D

 40 45  0  0  0  0  0  0  0  0999 V2000
    3.4791   -8.9574   35.1860 O   0  0  0  0  0  0  0  0  0  0  0  0
    2.5273   -8.5897   35.8721 C   0  0  0  0  0  0  0  0  0  0  0  0
    1.4362   -8.0326   35.2589 N   0  0  0  0  0  0  0  0  0  0  0  0
    0.2774   -7.7432   35.9243 C   0  0  0  0  0  0  0  0  0  0  0  0
   -0.9797   -7.1129   34.9040 S   0  0  0  0  0  0  0  0  0  0  0  0
   -0.2702   -6.3385   33.5593 C   0  0  0  0  0  0  0  0  0  0  0  0
    0.3480   -5.1424   33.4327 C   0  0  0  0  0  0  0  0  0  0  0  0
    0.4580   -4.1226   34.3758 N   0  0  0  0  0  0  0  0  0  0  0  0
    0.9076   -4.3504   35.9508 S   0  0  0  0  0  0  0  0  0  0  0  0
   -0.0169   -5.1792   36.6679 O   0  0  0  0  0  0  0  0  0  0  0  0
    1.2060   -3.0352   36.4606 O   0  0  0  0  0  0  0  0  0  0  0  0
    2.4819   -5.1005   36.0405 C   0  0  0  0  0  0  0  0  0  0  0  0
    3.1833   -5.1989   37.2275 C   0  0  0  0  0  0  0  0  0  0  0  0
    4.7736   -5.7555   36.9173 S   0  0  0  0  0  0  0  0  0  0  0  0
    4.3955   -5.8633   35.2469 C   0  0  0  0  0  0  0  0  0  0  0  0
    3.1738   -5.5180   34.8957 N   0  0  0  0  0  0  0  0  0  0  0  0
    0.7953   -4.7427   31.8821 C   0  0  0  0  0  0  0  0  0  0  0  0
    1.3937   -5.7514   31.1268 C   0  0  0  0  0  0  0  0  0  0  0  0
    0.0072   -6.4042   31.0574 C   0  0  0  0  0  0  0  0  0  0  0  0
   -0.3414   -4.9313   30.7588 C   0  0  0  0  0  0  0  0  0  0  0  0
   -0.3007   -7.3795   30.0293 N   0  0  0  0  0  0  0  0  0  0  0  0
   -0.9794   -8.3176   30.5550 N   0  0  0  0  0  0  0  0  0  0  0  0
   -1.1055   -8.1197   31.9063 C   0  0  0  0  0  0  0  0  0  0  0  0
   -0.4819   -7.0133   32.3019 C   0  0  0  0  0  0  0  0  0  0  0  0
    0.0886   -7.8996   37.1946 N   0  0  0  0  0  0  0  0  0  0  0  0
    1.1883   -8.3857   37.8980 C   0  0  0  0  0  0  0  0  0  0  0  0
    1.1955   -8.6162   39.2874 C   0  0  0  0  0  0  0  0  0  0  0  0
    2.4158   -9.1210   39.6918 C   0  0  0  0  0  0  0  0  0  0  0  0
    3.5177   -9.2909   38.3768 S   0  0  0  0  0  0  0  0  0  0  0  0
    2.3633   -8.7124   37.2857 C   0  0  0  0  0  0  0  0  0  0  0  0
    1.4917   -7.8464   34.2788 H   0  0  0  0  0  0  0  0  0  0  0  0
    0.8285   -3.2410   34.0230 H   0  0  0  0  0  0  0  0  0  0  0  0
    2.8556   -4.9284   38.2226 H   0  0  0  0  0  0  0  0  0  0  0  0
    5.1316   -6.2105   34.5329 H   0  0  0  0  0  0  0  0  0  0  0  0
    2.3323   -6.2390   31.3669 H   0  0  0  0  0  0  0  0  0  0  0  0
   -1.3157   -4.5504   31.0561 H   0  0  0  0  0  0  0  0  0  0  0  0
   -0.1208   -4.5458   29.7520 H   0  0  0  0  0  0  0  0  0  0  0  0
   -1.6549   -8.8260   32.5151 H   0  0  0  0  0  0  0  0  0  0  0  0
    0.3498   -8.4584   39.9436 H   0  0  0  0  0  0  0  0  0  0  0  0
    2.7109   -9.4168   40.6888 H   0  0  0  0  0  0  0  0  0  0  0  0
  1  2  2  0
  2  3  1  0
  3  4  1  0
  4  5  1  0
  5  6  1  0
  6  7  2  0
  7  8  1  0
  8  9  1  0
  9 10  2  0
  9 11  2  0
  9 12  1  0
 12 13  2  0
 13 14  1  0
 14 15  1  0
 15 16  2  0
  7 17  1  0
 17 18  2  0
 18 19  1  0
 19 20  1  0
 19 21  1  0
 21 22  2  0
 22 23  1  0
 23 24  2  0
  4 25  2  0
 25 26  1  0
 26 27  1  0
 27 28  2  0
 28 29  1  0
 29 30  1  0
 30  2  1  0
 24  6  1  0
 30 26  2  0
 16 12  1  0
 20 17  1  0
 24 19  1  0
  3 31  1  0
  8 32  1  0
 13 33  1  0
 15 34  1  0
 18 35  1  0
 20 36  1  0
 20 37  1  0
 23 38  1  0
 27 39  1  0
 28 40  1  0
M  END
>  <Energy>  (235) 
70.434054719816714

>  <compound_id>  (235) 
2483

>  <target_id>  (235) 
1

>  <reference_id>  (235) 
167

>  <inspiration_ids>  (235) 
[167, 183]

>  <energy_score>  (235) 
-248.8359811434417

>  <distance_score>  (235) 
1.5293976330944226

>  <path>  (235) 
/opt/xchem-fragalysis-2/maxwin/BulkDock/SCRATCH/505736/C2483-P167/C2483-P167.minimised.mol

>  <scratch_subdir>  (235) 
/opt/xchem-fragalysis-2/maxwin/BulkDock/SCRATCH/505736/C2483-P167

>  <fragmenstein_runtime>  (235) 
1.5219578742980957

>  <fragmenstein_outcome>  (235) 
too moved

>  <fragmenstein_mode>  (235) 
expansion

>  <fragmenstein_error>  (235) 


$$$$
C2483-P183
     RDKit          3D

 40 45  0  0  0  0  0  0  0  0999 V2000
    3.6441   -8.4375   35.4466 O   0  0  0  0  0  0  0  0  0  0  0  0
    2.6765   -8.0977   36.1274 C   0  0  0  0  0  0  0  0  0  0  0  0
    1.5383   -7.6854   35.4964 N   0  0  0  0  0  0  0  0  0  0  0  0
    0.3635   -7.4539   36.1600 C   0  0  0  0  0  0  0  0  0  0  0  0
   -0.9639   -6.9965   35.1443 S   0  0  0  0  0  0  0  0  0  0  0  0
   -0.3060   -6.3584   33.6819 C   0  0  0  0  0  0  0  0  0  0  0  0
    0.5649   -5.3494   33.4517 C   0  0  0  0  0  0  0  0  0  0  0  0
    1.3304   -4.6835   34.4171 N   0  0  0  0  0  0  0  0  0  0  0  0
    0.5684   -4.1698   35.8205 S   0  0  0  0  0  0  0  0  0  0  0  0
   -0.8554   -4.0895   35.6103 O   0  0  0  0  0  0  0  0  0  0  0  0
    1.1841   -4.8632   36.9263 O   0  0  0  0  0  0  0  0  0  0  0  0
    1.0565   -2.5093   36.0415 C   0  0  0  0  0  0  0  0  0  0  0  0
    0.6328   -1.7237   37.0934 C   0  0  0  0  0  0  0  0  0  0  0  0
    1.3273   -0.1625   36.9540 S   0  0  0  0  0  0  0  0  0  0  0  0
    2.1271   -0.6578   35.5165 C   0  0  0  0  0  0  0  0  0  0  0  0
    1.9215   -1.8980   35.1266 N   0  0  0  0  0  0  0  0  0  0  0  0
    0.9696   -5.0546   31.8577 C   0  0  0  0  0  0  0  0  0  0  0  0
    1.1640   -6.1155   30.9709 C   0  0  0  0  0  0  0  0  0  0  0  0
   -0.2972   -6.4973   31.1729 C   0  0  0  0  0  0  0  0  0  0  0  0
   -0.4320   -4.9782   30.9352 C   0  0  0  0  0  0  0  0  0  0  0  0
   -0.8697   -7.4158   30.2103 N   0  0  0  0  0  0  0  0  0  0  0  0
   -1.4766   -8.3268   30.8481 N   0  0  0  0  0  0  0  0  0  0  0  0
   -1.4260   -8.0969   32.1916 C   0  0  0  0  0  0  0  0  0  0  0  0
   -0.7134   -7.0173   32.4775 C   0  0  0  0  0  0  0  0  0  0  0  0
    0.1707   -7.5430   37.4370 N   0  0  0  0  0  0  0  0  0  0  0  0
    1.3120   -7.9245   38.1502 C   0  0  0  0  0  0  0  0  0  0  0  0
    1.3294   -8.1394   39.5433 C   0  0  0  0  0  0  0  0  0  0  0  0
    2.5757   -8.5678   39.9562 C   0  0  0  0  0  0  0  0  0  0  0  0
    3.6913   -8.6872   38.6481 S   0  0  0  0  0  0  0  0  0  0  0  0
    2.5138   -8.1776   37.5465 C   0  0  0  0  0  0  0  0  0  0  0  0
    1.5817   -7.6141   34.4997 H   0  0  0  0  0  0  0  0  0  0  0  0
    1.9253   -3.9316   34.0514 H   0  0  0  0  0  0  0  0  0  0  0  0
   -0.0307   -1.9896   37.9055 H   0  0  0  0  0  0  0  0  0  0  0  0
    2.7647    0.0252   34.9690 H   0  0  0  0  0  0  0  0  0  0  0  0
    1.6917   -6.1240   30.0078 H   0  0  0  0  0  0  0  0  0  0  0  0
   -1.2747   -4.4732   31.4192 H   0  0  0  0  0  0  0  0  0  0  0  0
   -0.3301   -4.5944   29.9099 H   0  0  0  0  0  0  0  0  0  0  0  0
   -1.9212   -8.7579   32.8830 H   0  0  0  0  0  0  0  0  0  0  0  0
    0.4799   -8.0113   40.2007 H   0  0  0  0  0  0  0  0  0  0  0  0
    2.8903   -8.8178   40.9597 H   0  0  0  0  0  0  0  0  0  0  0  0
  1  2  2  0
  2  3  1  0
  3  4  1  0
  4  5  1  0
  5  6  1  0
  6  7  2  0
  7  8  1  0
  8  9  1  0
  9 10  2  0
  9 11  2  0
  9 12  1  0
 12 13  2  0
 13 14  1  0
 14 15  1  0
 15 16  2  0
  7 17  1  0
 17 18  2  0
 18 19  1  0
 19 20  1  0
 19 21  1  0
 21 22  2  0
 22 23  1  0
 23 24  2  0
  4 25  2  0
 25 26  1  0
 26 27  1  0
 27 28  2  0
 28 29  1  0
 29 30  1  0
 30  2  1  0
 24  6  1  0
 30 26  2  0
 16 12  1  0
 20 17  1  0
 24 19  1  0
  3 31  1  0
  8 32  1  0
 13 33  1  0
 15 34  1  0
 18 35  1  0
 20 36  1  0
 20 37  1  0
 23 38  1  0
 27 39  1  0
 28 40  1  0
M  END
>  <Energy>  (236) 
66.895102898093484

>  <compound_id>  (236) 
2483

>  <target_id>  (236) 
1

>  <reference_id>  (236) 
183

>  <inspiration_ids>  (236) 
[167, 183]

>  <energy_score>  (236) 
-252.37493296516573

>  <distance_score>  (236) 
1.325299778014756

>  <path>  (236) 
/opt/xchem-fragalysis-2/maxwin/BulkDock/SCRATCH/505736/C2483-P183/C2483-P183.minimised.mol

>  <scratch_subdir>  (236) 
/opt/xchem-fragalysis-2/maxwin/BulkDock/SCRATCH/505736/C2483-P183

>  <fragmenstein_runtime>  (236) 
1.6405062675476074

>  <fragmenstein_outcome>  (236) 
too moved

>  <fragmenstein_mode>  (236) 
expansion

>  <fragmenstein_error>  (236) 


$$$$
C2463-P167
     RDKit          3D

 49 53  0  0  0  0  0  0  0  0999 V2000
   -1.5513    1.8488   27.3898 N   0  0  0  0  0  0  0  0  0  0  0  0
   -1.3849    0.8354   28.3200 C   0  0  0  0  0  0  0  0  0  0  0  0
   -1.5792   -0.4938   27.9732 C   0  0  0  0  0  0  0  0  0  0  0  0
   -1.4807   -1.4792   28.9527 C   0  0  0  0  0  0  0  0  0  0  0  0
   -1.1880   -1.0859   30.2495 C   0  0  0  0  0  0  0  0  0  0  0  0
   -1.0060   -2.2278   31.5628 S   0  0  0  0  0  0  0  0  0  0  0  0
   -1.6428   -3.4784   31.2097 O   0  0  0  0  0  0  0  0  0  0  0  0
   -1.3035   -1.5431   32.8010 O   0  0  0  0  0  0  0  0  0  0  0  0
    0.6480   -2.4325   31.5440 N   0  0  0  0  0  0  0  0  0  0  0  0
    1.3260   -3.0578   30.4129 C   0  0  0  0  0  0  0  0  0  0  0  0
    2.1035   -4.2829   30.8992 C   0  0  0  0  0  0  0  0  0  0  0  0
    1.1708   -5.3181   31.4735 C   0  0  0  0  0  0  0  0  0  0  0  0
    0.8742   -5.2597   32.9042 C   0  0  0  0  0  0  0  0  0  0  0  0
   -0.0084   -6.1226   33.4460 C   0  0  0  0  0  0  0  0  0  0  0  0
   -0.4433   -5.9967   35.1134 S   0  0  0  0  0  0  0  0  0  0  0  0
    0.5802   -7.1775   35.8891 C   0  0  0  0  0  0  0  0  0  0  0  0
    1.6953   -7.4874   35.3077 N   0  0  0  0  0  0  0  0  0  0  0  0
    2.5491   -8.3545   35.9573 C   0  0  0  0  0  0  0  0  0  0  0  0
    3.4617   -8.9015   35.3490 O   0  0  0  0  0  0  0  0  0  0  0  0
    2.2212   -8.5736   37.3464 C   0  0  0  0  0  0  0  0  0  0  0  0
    3.2335   -9.3268   38.4776 S   0  0  0  0  0  0  0  0  0  0  0  0
    2.0005   -9.2684   39.6776 C   0  0  0  0  0  0  0  0  0  0  0  0
    0.8492   -8.6582   39.2170 C   0  0  0  0  0  0  0  0  0  0  0  0
    1.0042   -8.2406   37.8787 C   0  0  0  0  0  0  0  0  0  0  0  0
    0.1113   -7.6055   37.1027 N   0  0  0  0  0  0  0  0  0  0  0  0
   -0.6006   -7.0755   32.6104 N   0  0  0  0  0  0  0  0  0  0  0  0
   -1.4843   -8.0940   32.8386 C   0  0  0  0  0  0  0  0  0  0  0  0
   -1.7763   -8.7054   31.7101 N   0  0  0  0  0  0  0  0  0  0  0  0
   -1.0674   -8.1063   30.7034 N   0  0  0  0  0  0  0  0  0  0  0  0
   -0.3514   -7.1493   31.2472 C   0  0  0  0  0  0  0  0  0  0  0  0
    0.5650   -6.2291   30.6887 C   0  0  0  0  0  0  0  0  0  0  0  0
   -1.0027    0.2547   30.5158 C   0  0  0  0  0  0  0  0  0  0  0  0
   -1.0851    1.2161   29.5710 N   0  0  0  0  0  0  0  0  0  0  0  0
   -0.9606    1.7341   26.5816 H   0  0  0  0  0  0  0  0  0  0  0  0
   -1.4055    2.7402   27.8592 H   0  0  0  0  0  0  0  0  0  0  0  0
   -1.8647   -0.7600   26.9609 H   0  0  0  0  0  0  0  0  0  0  0  0
   -1.6601   -2.5181   28.6908 H   0  0  0  0  0  0  0  0  0  0  0  0
    1.1745   -1.9368   32.2605 H   0  0  0  0  0  0  0  0  0  0  0  0
    2.0175   -2.3297   29.9756 H   0  0  0  0  0  0  0  0  0  0  0  0
    0.6236   -3.3524   29.6269 H   0  0  0  0  0  0  0  0  0  0  0  0
    2.6595   -4.7090   30.0542 H   0  0  0  0  0  0  0  0  0  0  0  0
    2.8568   -3.9926   31.6424 H   0  0  0  0  0  0  0  0  0  0  0  0
    1.3483   -4.4871   33.5024 H   0  0  0  0  0  0  0  0  0  0  0  0
    2.1720   -9.7074   40.6509 H   0  0  0  0  0  0  0  0  0  0  0  0
   -0.0487   -8.5524   39.8116 H   0  0  0  0  0  0  0  0  0  0  0  0
   -0.8808   -7.4874   37.3240 H   0  0  0  0  0  0  0  0  0  0  0  0
   -1.8834   -8.3430   33.8125 H   0  0  0  0  0  0  0  0  0  0  0  0
    0.7456   -6.2644   29.6249 H   0  0  0  0  0  0  0  0  0  0  0  0
   -0.7669    0.6187   31.5116 H   0  0  0  0  0  0  0  0  0  0  0  0
  1  2  1  0
  2  3  2  0
  3  4  1  0
  4  5  2  0
  5  6  1  0
  6  7  2  0
  6  8  2  0
  6  9  1  0
  9 10  1  0
 10 11  1  0
 11 12  1  0
 12 13  1  0
 13 14  2  0
 14 15  1  0
 15 16  1  0
 16 17  2  0
 17 18  1  0
 18 19  2  0
 18 20  1  0
 20 21  1  0
 21 22  1  0
 22 23  2  0
 23 24  1  0
 24 25  1  0
 14 26  1  0
 26 27  1  0
 27 28  2  0
 28 29  1  0
 29 30  2  0
 30 31  1  0
  5 32  1  0
 32 33  2  0
 33  2  1  0
 31 12  2  0
 25 16  1  0
 30 26  1  0
 24 20  2  0
  1 34  1  0
  1 35  1  0
  3 36  1  0
  4 37  1  0
  9 38  1  0
 10 39  1  0
 10 40  1  0
 11 41  1  0
 11 42  1  0
 13 43  1  0
 22 44  1  0
 23 45  1  0
 25 46  1  0
 27 47  1  0
 31 48  1  0
 32 49  1  0
M  END
>  <Energy>  (237) 
-109.43349387556282

>  <compound_id>  (237) 
2463

>  <target_id>  (237) 
1

>  <reference_id>  (237) 
167

>  <inspiration_ids>  (237) 
[167, 186]

>  <energy_score>  (237) 
-82.60805343379272

>  <distance_score>  (237) 
0.5646764765999204

>  <path>  (237) 
/opt/xchem-fragalysis-2/maxwin/BulkDock/SCRATCH/505736/C2463-P167/C2463-P167.minimised.mol

>  <scratch_subdir>  (237) 
/opt/xchem-fragalysis-2/maxwin/BulkDock/SCRATCH/505736/C2463-P167

>  <fragmenstein_runtime>  (237) 
1.8654496669769287

>  <fragmenstein_outcome>  (237) 
acceptable

>  <fragmenstein_mode>  (237) 
expansion

>  <fragmenstein_error>  (237) 


$$$$
C2463-P186
     RDKit          3D

 49 53  0  0  0  0  0  0  0  0999 V2000
    0.8715    1.6441   28.0985 N   0  0  0  0  0  0  0  0  0  0  0  0
   -0.0023    0.8267   28.7923 C   0  0  0  0  0  0  0  0  0  0  0  0
   -0.4365   -0.3902   28.2720 C   0  0  0  0  0  0  0  0  0  0  0  0
   -1.0586   -1.3130   29.1058 C   0  0  0  0  0  0  0  0  0  0  0  0
   -1.1336   -0.9938   30.4529 C   0  0  0  0  0  0  0  0  0  0  0  0
   -1.1681   -2.2426   31.6829 S   0  0  0  0  0  0  0  0  0  0  0  0
   -1.8225   -3.4274   31.1764 O   0  0  0  0  0  0  0  0  0  0  0  0
   -1.5525   -1.6319   32.9347 O   0  0  0  0  0  0  0  0  0  0  0  0
    0.4818   -2.5240   31.7959 N   0  0  0  0  0  0  0  0  0  0  0  0
    1.2518   -2.9987   30.6343 C   0  0  0  0  0  0  0  0  0  0  0  0
    2.1034   -4.2015   31.0428 C   0  0  0  0  0  0  0  0  0  0  0  0
    1.1977   -5.2916   31.5481 C   0  0  0  0  0  0  0  0  0  0  0  0
    0.8341   -5.2490   32.9645 C   0  0  0  0  0  0  0  0  0  0  0  0
   -0.1075   -6.0842   33.4396 C   0  0  0  0  0  0  0  0  0  0  0  0
   -0.6445   -5.9797   35.0845 S   0  0  0  0  0  0  0  0  0  0  0  0
    0.6250   -6.8159   35.9578 C   0  0  0  0  0  0  0  0  0  0  0  0
    1.6332   -7.2735   35.2901 N   0  0  0  0  0  0  0  0  0  0  0  0
    2.6449   -7.9237   35.9649 C   0  0  0  0  0  0  0  0  0  0  0  0
    3.5611   -8.4467   35.3405 O   0  0  0  0  0  0  0  0  0  0  0  0
    2.4571   -7.9892   37.3984 C   0  0  0  0  0  0  0  0  0  0  0  0
    3.5456   -8.7067   38.4859 S   0  0  0  0  0  0  0  0  0  0  0  0
    2.4604   -8.4652   39.7984 C   0  0  0  0  0  0  0  0  0  0  0  0
    1.3174   -7.7899   39.4155 C   0  0  0  0  0  0  0  0  0  0  0  0
    1.3371   -7.5173   38.0303 C   0  0  0  0  0  0  0  0  0  0  0  0
    0.3945   -6.8945   37.3053 N   0  0  0  0  0  0  0  0  0  0  0  0
   -0.6562   -7.0156   32.5564 N   0  0  0  0  0  0  0  0  0  0  0  0
   -1.5577   -8.0219   32.7321 C   0  0  0  0  0  0  0  0  0  0  0  0
   -1.8037   -8.6259   31.5922 N   0  0  0  0  0  0  0  0  0  0  0  0
   -1.0332   -8.0375   30.6279 N   0  0  0  0  0  0  0  0  0  0  0  0
   -0.3275   -7.0952   31.2116 C   0  0  0  0  0  0  0  0  0  0  0  0
    0.6306   -6.1843   30.7133 C   0  0  0  0  0  0  0  0  0  0  0  0
   -0.7922    0.2747   30.8755 C   0  0  0  0  0  0  0  0  0  0  0  0
   -0.2481    1.1943   30.0576 N   0  0  0  0  0  0  0  0  0  0  0  0
    0.5842    1.8695   27.1488 H   0  0  0  0  0  0  0  0  0  0  0  0
    1.0213    2.4924   28.6365 H   0  0  0  0  0  0  0  0  0  0  0  0
   -0.1963   -0.6705   27.2548 H   0  0  0  0  0  0  0  0  0  0  0  0
   -1.3161   -2.3028   28.7349 H   0  0  0  0  0  0  0  0  0  0  0  0
    0.9618   -1.9750   32.5077 H   0  0  0  0  0  0  0  0  0  0  0  0
    1.8949   -2.1872   30.2787 H   0  0  0  0  0  0  0  0  0  0  0  0
    0.5980   -3.2999   29.8112 H   0  0  0  0  0  0  0  0  0  0  0  0
    2.6780   -4.5507   30.1760 H   0  0  0  0  0  0  0  0  0  0  0  0
    2.8367   -3.9202   31.8086 H   0  0  0  0  0  0  0  0  0  0  0  0
    1.3008   -4.5005   33.5982 H   0  0  0  0  0  0  0  0  0  0  0  0
    2.7175   -8.8266   40.7852 H   0  0  0  0  0  0  0  0  0  0  0  0
    0.5205   -7.5419   40.1047 H   0  0  0  0  0  0  0  0  0  0  0  0
   -0.4431   -6.4712   37.6865 H   0  0  0  0  0  0  0  0  0  0  0  0
   -1.9944   -8.2693   33.6860 H   0  0  0  0  0  0  0  0  0  0  0  0
    0.8503   -6.1942   29.6537 H   0  0  0  0  0  0  0  0  0  0  0  0
   -0.8363    0.5707   31.9200 H   0  0  0  0  0  0  0  0  0  0  0  0
  1  2  1  0
  2  3  2  0
  3  4  1  0
  4  5  2  0
  5  6  1  0
  6  7  2  0
  6  8  2  0
  6  9  1  0
  9 10  1  0
 10 11  1  0
 11 12  1  0
 12 13  1  0
 13 14  2  0
 14 15  1  0
 15 16  1  0
 16 17  2  0
 17 18  1  0
 18 19  2  0
 18 20  1  0
 20 21  1  0
 21 22  1  0
 22 23  2  0
 23 24  1  0
 24 25  1  0
 14 26  1  0
 26 27  1  0
 27 28  2  0
 28 29  1  0
 29 30  2  0
 30 31  1  0
  5 32  1  0
 32 33  2  0
 33  2  1  0
 31 12  2  0
 25 16  1  0
 30 26  1  0
 24 20  2  0
  1 34  1  0
  1 35  1  0
  3 36  1  0
  4 37  1  0
  9 38  1  0
 10 39  1  0
 10 40  1  0
 11 41  1  0
 11 42  1  0
 13 43  1  0
 22 44  1  0
 23 45  1  0
 25 46  1  0
 27 47  1  0
 31 48  1  0
 32 49  1  0
M  END
>  <Energy>  (238) 
-101.9995446309544

>  <compound_id>  (238) 
2463

>  <target_id>  (238) 
1

>  <reference_id>  (238) 
186

>  <inspiration_ids>  (238) 
[167, 186]

>  <energy_score>  (238) 
-75.17410418918323

>  <distance_score>  (238) 
0.7303238033388262

>  <path>  (238) 
/opt/xchem-fragalysis-2/maxwin/BulkDock/SCRATCH/505736/C2463-P186/C2463-P186.minimised.mol

>  <scratch_subdir>  (238) 
/opt/xchem-fragalysis-2/maxwin/BulkDock/SCRATCH/505736/C2463-P186

>  <fragmenstein_runtime>  (238) 
2.6446452140808105

>  <fragmenstein_outcome>  (238) 
acceptable

>  <fragmenstein_mode>  (238) 
expansion

>  <fragmenstein_error>  (238) 


$$$$
C2463-P167
     RDKit          3D

 49 53  0  0  0  0  0  0  0  0999 V2000
   -1.5288    1.9275   27.3179 N   0  0  0  0  0  0  0  0  0  0  0  0
   -1.3792    0.9088   28.2454 C   0  0  0  0  0  0  0  0  0  0  0  0
   -1.5929   -0.4167   27.8978 C   0  0  0  0  0  0  0  0  0  0  0  0
   -1.5084   -1.4045   28.8770 C   0  0  0  0  0  0  0  0  0  0  0  0
   -1.2035   -1.0194   30.1738 C   0  0  0  0  0  0  0  0  0  0  0  0
   -1.0708   -2.1646   31.4920 S   0  0  0  0  0  0  0  0  0  0  0  0
   -1.2558   -1.4459   32.7330 O   0  0  0  0  0  0  0  0  0  0  0  0
   -1.8293   -3.3561   31.1797 O   0  0  0  0  0  0  0  0  0  0  0  0
    0.5520   -2.5350   31.4191 N   0  0  0  0  0  0  0  0  0  0  0  0
    1.1243   -3.2087   30.2570 C   0  0  0  0  0  0  0  0  0  0  0  0
    1.9535   -4.4000   30.7301 C   0  0  0  0  0  0  0  0  0  0  0  0
    1.0732   -5.4132   31.4056 C   0  0  0  0  0  0  0  0  0  0  0  0
    0.8263   -5.2910   32.8412 C   0  0  0  0  0  0  0  0  0  0  0  0
   -0.0338   -6.1333   33.4486 C   0  0  0  0  0  0  0  0  0  0  0  0
   -0.4114   -5.9440   35.1247 S   0  0  0  0  0  0  0  0  0  0  0  0
    0.5922   -7.1471   35.8941 C   0  0  0  0  0  0  0  0  0  0  0  0
    1.7044   -7.4652   35.3111 N   0  0  0  0  0  0  0  0  0  0  0  0
    2.5466   -8.3482   35.9544 C   0  0  0  0  0  0  0  0  0  0  0  0
    3.4497   -8.9058   35.3414 O   0  0  0  0  0  0  0  0  0  0  0  0
    2.2177   -8.5692   37.3429 C   0  0  0  0  0  0  0  0  0  0  0  0
    3.2246   -9.3328   38.4719 S   0  0  0  0  0  0  0  0  0  0  0  0
    1.9914   -9.2705   39.6714 C   0  0  0  0  0  0  0  0  0  0  0  0
    0.8448   -8.6500   39.2128 C   0  0  0  0  0  0  0  0  0  0  0  0
    1.0035   -8.2279   37.8764 C   0  0  0  0  0  0  0  0  0  0  0  0
    0.1166   -7.5809   37.1030 N   0  0  0  0  0  0  0  0  0  0  0  0
   -0.6481   -7.1225   32.6730 N   0  0  0  0  0  0  0  0  0  0  0  0
   -1.5279   -8.1254   32.9667 C   0  0  0  0  0  0  0  0  0  0  0  0
   -1.8518   -8.7802   31.8716 N   0  0  0  0  0  0  0  0  0  0  0  0
   -1.1687   -8.2313   30.8228 N   0  0  0  0  0  0  0  0  0  0  0  0
   -0.4370   -7.2580   31.3090 C   0  0  0  0  0  0  0  0  0  0  0  0
    0.4574   -6.3662   30.6854 C   0  0  0  0  0  0  0  0  0  0  0  0
   -0.9941    0.3176   30.4386 C   0  0  0  0  0  0  0  0  0  0  0  0
   -1.0667    1.2815   29.4946 N   0  0  0  0  0  0  0  0  0  0  0  0
   -0.9149    1.8238   26.5258 H   0  0  0  0  0  0  0  0  0  0  0  0
   -1.3840    2.8132   27.8003 H   0  0  0  0  0  0  0  0  0  0  0  0
   -1.8897   -0.6771   26.8879 H   0  0  0  0  0  0  0  0  0  0  0  0
   -1.7157   -2.4388   28.6170 H   0  0  0  0  0  0  0  0  0  0  0  0
    1.1510   -2.0303   32.0698 H   0  0  0  0  0  0  0  0  0  0  0  0
    1.7659   -2.4995   29.7233 H   0  0  0  0  0  0  0  0  0  0  0  0
    0.3524   -3.5465   29.5582 H   0  0  0  0  0  0  0  0  0  0  0  0
    2.4556   -4.8513   29.8647 H   0  0  0  0  0  0  0  0  0  0  0  0
    2.7520   -4.0748   31.4089 H   0  0  0  0  0  0  0  0  0  0  0  0
    1.3186   -4.4928   33.3890 H   0  0  0  0  0  0  0  0  0  0  0  0
    2.1593   -9.7147   40.6431 H   0  0  0  0  0  0  0  0  0  0  0  0
   -0.0523   -8.5397   39.8079 H   0  0  0  0  0  0  0  0  0  0  0  0
   -0.8739   -7.4546   37.3259 H   0  0  0  0  0  0  0  0  0  0  0  0
   -1.9045   -8.3320   33.9594 H   0  0  0  0  0  0  0  0  0  0  0  0
    0.6077   -6.4504   29.6222 H   0  0  0  0  0  0  0  0  0  0  0  0
   -0.7509    0.6793   31.4336 H   0  0  0  0  0  0  0  0  0  0  0  0
  1  2  1  0
  2  3  2  0
  3  4  1  0
  4  5  2  0
  5  6  1  0
  6  7  2  0
  6  8  2  0
  6  9  1  0
  9 10  1  0
 10 11  1  0
 11 12  1  0
 12 13  1  0
 13 14  2  0
 14 15  1  0
 15 16  1  0
 16 17  2  0
 17 18  1  0
 18 19  2  0
 18 20  1  0
 20 21  1  0
 21 22  1  0
 22 23  2  0
 23 24  1  0
 24 25  1  0
 14 26  1  0
 26 27  1  0
 27 28  2  0
 28 29  1  0
 29 30  2  0
 30 31  1  0
  5 32  1  0
 32 33  2  0
 33  2  1  0
 31 12  2  0
 25 16  1  0
 30 26  1  0
 24 20  2  0
  1 34  1  0
  1 35  1  0
  3 36  1  0
  4 37  1  0
  9 38  1  0
 10 39  1  0
 10 40  1  0
 11 41  1  0
 11 42  1  0
 13 43  1  0
 22 44  1  0
 23 45  1  0
 25 46  1  0
 27 47  1  0
 31 48  1  0
 32 49  1  0
M  END
>  <Energy>  (239) 
-108.94734249192318

>  <compound_id>  (239) 
2463

>  <target_id>  (239) 
1

>  <reference_id>  (239) 
167

>  <inspiration_ids>  (239) 
[167, 187]

>  <energy_score>  (239) 
-82.12190205015342

>  <distance_score>  (239) 
0.5396697437638127

>  <path>  (239) 
/opt/xchem-fragalysis-2/maxwin/BulkDock/SCRATCH/505736/C2463-P167/C2463-P167.minimised.mol

>  <scratch_subdir>  (239) 
/opt/xchem-fragalysis-2/maxwin/BulkDock/SCRATCH/505736/C2463-P167

>  <fragmenstein_runtime>  (239) 
1.958308219909668

>  <fragmenstein_outcome>  (239) 
acceptable

>  <fragmenstein_mode>  (239) 
expansion

>  <fragmenstein_error>  (239) 


$$$$
C2463-P187
     RDKit          3D

 49 53  0  0  0  0  0  0  0  0999 V2000
   -1.3146    1.9327   27.2659 N   0  0  0  0  0  0  0  0  0  0  0  0
   -1.1963    0.9080   28.1876 C   0  0  0  0  0  0  0  0  0  0  0  0
   -1.6242   -0.3782   27.8982 C   0  0  0  0  0  0  0  0  0  0  0  0
   -1.5875   -1.3535   28.8923 C   0  0  0  0  0  0  0  0  0  0  0  0
   -1.1311   -0.9909   30.1478 C   0  0  0  0  0  0  0  0  0  0  0  0
   -1.0386   -2.1124   31.4853 S   0  0  0  0  0  0  0  0  0  0  0  0
   -1.2362   -1.3677   32.7087 O   0  0  0  0  0  0  0  0  0  0  0  0
   -1.8100   -3.2994   31.1888 O   0  0  0  0  0  0  0  0  0  0  0  0
    0.5829   -2.4949   31.4377 N   0  0  0  0  0  0  0  0  0  0  0  0
    1.1709   -3.1318   30.2585 C   0  0  0  0  0  0  0  0  0  0  0  0
    2.0353   -4.3050   30.7140 C   0  0  0  0  0  0  0  0  0  0  0  0
    1.1665   -5.3377   31.3693 C   0  0  0  0  0  0  0  0  0  0  0  0
    0.8510   -5.1974   32.7916 C   0  0  0  0  0  0  0  0  0  0  0  0
   -0.0518   -6.0211   33.3590 C   0  0  0  0  0  0  0  0  0  0  0  0
   -0.5360   -5.8180   35.0104 S   0  0  0  0  0  0  0  0  0  0  0  0
    0.6523   -6.7649   35.8852 C   0  0  0  0  0  0  0  0  0  0  0  0
    1.6701   -7.2306   35.2372 N   0  0  0  0  0  0  0  0  0  0  0  0
    2.6202   -7.9569   35.9236 C   0  0  0  0  0  0  0  0  0  0  0  0
    3.5149   -8.5346   35.3148 O   0  0  0  0  0  0  0  0  0  0  0  0
    2.4155   -8.0015   37.3570 C   0  0  0  0  0  0  0  0  0  0  0  0
    3.4895   -8.6990   38.4729 S   0  0  0  0  0  0  0  0  0  0  0  0
    2.3936   -8.4204   39.7694 C   0  0  0  0  0  0  0  0  0  0  0  0
    1.2540   -7.7570   39.3574 C   0  0  0  0  0  0  0  0  0  0  0  0
    1.2920   -7.5104   37.9671 C   0  0  0  0  0  0  0  0  0  0  0  0
    0.3691   -6.8842   37.2207 N   0  0  0  0  0  0  0  0  0  0  0  0
   -0.6207   -7.0151   32.5589 N   0  0  0  0  0  0  0  0  0  0  0  0
   -1.5115   -8.0111   32.8204 C   0  0  0  0  0  0  0  0  0  0  0  0
   -1.8067   -8.6618   31.7170 N   0  0  0  0  0  0  0  0  0  0  0  0
   -1.0711   -8.1335   30.6981 N   0  0  0  0  0  0  0  0  0  0  0  0
   -0.3411   -7.1730   31.2112 C   0  0  0  0  0  0  0  0  0  0  0  0
    0.5943   -6.3006   30.6270 C   0  0  0  0  0  0  0  0  0  0  0  0
   -0.6985    0.3014   30.3523 C   0  0  0  0  0  0  0  0  0  0  0  0
   -0.7082    1.2466   29.3888 N   0  0  0  0  0  0  0  0  0  0  0  0
   -0.8713    1.7288   26.3858 H   0  0  0  0  0  0  0  0  0  0  0  0
   -0.9698    2.7909   27.6891 H   0  0  0  0  0  0  0  0  0  0  0  0
   -2.0311   -0.6137   26.9212 H   0  0  0  0  0  0  0  0  0  0  0  0
   -1.9341   -2.3596   28.6777 H   0  0  0  0  0  0  0  0  0  0  0  0
    1.1764   -1.9644   32.0731 H   0  0  0  0  0  0  0  0  0  0  0  0
    1.7908   -2.3956   29.7360 H   0  0  0  0  0  0  0  0  0  0  0  0
    0.4041   -3.4787   29.5577 H   0  0  0  0  0  0  0  0  0  0  0  0
    2.5510   -4.7308   29.8440 H   0  0  0  0  0  0  0  0  0  0  0  0
    2.8209   -3.9711   31.4034 H   0  0  0  0  0  0  0  0  0  0  0  0
    1.3241   -4.3986   33.3545 H   0  0  0  0  0  0  0  0  0  0  0  0
    2.6474   -8.7449   40.7693 H   0  0  0  0  0  0  0  0  0  0  0  0
    0.4516   -7.4810   40.0295 H   0  0  0  0  0  0  0  0  0  0  0  0
   -0.4798   -6.4628   37.5775 H   0  0  0  0  0  0  0  0  0  0  0  0
   -1.9082   -8.2170   33.8022 H   0  0  0  0  0  0  0  0  0  0  0  0
    0.7987   -6.3954   29.5724 H   0  0  0  0  0  0  0  0  0  0  0  0
   -0.3162    0.6384   31.3118 H   0  0  0  0  0  0  0  0  0  0  0  0
  1  2  1  0
  2  3  2  0
  3  4  1  0
  4  5  2  0
  5  6  1  0
  6  7  2  0
  6  8  2  0
  6  9  1  0
  9 10  1  0
 10 11  1  0
 11 12  1  0
 12 13  1  0
 13 14  2  0
 14 15  1  0
 15 16  1  0
 16 17  2  0
 17 18  1  0
 18 19  2  0
 18 20  1  0
 20 21  1  0
 21 22  1  0
 22 23  2  0
 23 24  1  0
 24 25  1  0
 14 26  1  0
 26 27  1  0
 27 28  2  0
 28 29  1  0
 29 30  2  0
 30 31  1  0
  5 32  1  0
 32 33  2  0
 33  2  1  0
 31 12  2  0
 25 16  1  0
 30 26  1  0
 24 20  2  0
  1 34  1  0
  1 35  1  0
  3 36  1  0
  4 37  1  0
  9 38  1  0
 10 39  1  0
 10 40  1  0
 11 41  1  0
 11 42  1  0
 13 43  1  0
 22 44  1  0
 23 45  1  0
 25 46  1  0
 27 47  1  0
 31 48  1  0
 32 49  1  0
M  END
>  <Energy>  (240) 
-110.94920365753931

>  <compound_id>  (240) 
2463

>  <target_id>  (240) 
1

>  <reference_id>  (240) 
187

>  <inspiration_ids>  (240) 
[167, 187]

>  <energy_score>  (240) 
-84.1237632157686

>  <distance_score>  (240) 
0.6308879058635104

>  <path>  (240) 
/opt/xchem-fragalysis-2/maxwin/BulkDock/SCRATCH/505736/C2463-P187/C2463-P187.minimised.mol

>  <scratch_subdir>  (240) 
/opt/xchem-fragalysis-2/maxwin/BulkDock/SCRATCH/505736/C2463-P187

>  <fragmenstein_runtime>  (240) 
1.9472858905792236

>  <fragmenstein_outcome>  (240) 
acceptable

>  <fragmenstein_mode>  (240) 
expansion

>  <fragmenstein_error>  (240) 


$$$$
C2464-P167
     RDKit          3D

 40 43  0  0  0  0  0  0  0  0999 V2000
   -1.2410    1.0573   28.4522 C   0  0  0  0  0  0  0  0  0  0  0  0
   -0.0767    0.0879   28.4092 C   0  0  0  0  0  0  0  0  0  0  0  0
   -0.5035   -1.1493   28.9851 O   0  0  0  0  0  0  0  0  0  0  0  0
    0.3823   -2.1664   28.8708 C   0  0  0  0  0  0  0  0  0  0  0  0
    1.4420   -2.1775   28.2681 O   0  0  0  0  0  0  0  0  0  0  0  0
   -0.1146   -3.2702   29.7108 C   0  0  0  0  0  0  0  0  0  0  0  0
    0.6038   -4.3988   29.8470 C   0  0  0  0  0  0  0  0  0  0  0  0
    0.4922   -5.1654   31.0779 C   0  0  0  0  0  0  0  0  0  0  0  0
    0.9939   -4.5270   32.1616 C   0  0  0  0  0  0  0  0  0  0  0  0
    0.7124   -4.9419   33.5108 C   0  0  0  0  0  0  0  0  0  0  0  0
   -0.0635   -6.0182   33.7134 C   0  0  0  0  0  0  0  0  0  0  0  0
   -0.6555   -6.3366   35.2875 S   0  0  0  0  0  0  0  0  0  0  0  0
    0.5242   -7.3767   36.0175 C   0  0  0  0  0  0  0  0  0  0  0  0
    1.6224   -7.6216   35.3786 N   0  0  0  0  0  0  0  0  0  0  0  0
    2.5735   -8.4038   36.0020 C   0  0  0  0  0  0  0  0  0  0  0  0
    3.5032   -8.8785   35.3601 O   0  0  0  0  0  0  0  0  0  0  0  0
    2.3221   -8.6373   37.4061 C   0  0  0  0  0  0  0  0  0  0  0  0
    3.4184   -9.3485   38.4849 S   0  0  0  0  0  0  0  0  0  0  0  0
    2.2487   -9.3332   39.7481 C   0  0  0  0  0  0  0  0  0  0  0  0
    1.0494   -8.7782   39.3457 C   0  0  0  0  0  0  0  0  0  0  0  0
    1.1183   -8.3654   37.9996 C   0  0  0  0  0  0  0  0  0  0  0  0
    0.1550   -7.7886   37.2682 N   0  0  0  0  0  0  0  0  0  0  0  0
   -0.4811   -6.7659   32.6088 N   0  0  0  0  0  0  0  0  0  0  0  0
   -1.2213   -7.9148   32.5047 C   0  0  0  0  0  0  0  0  0  0  0  0
   -1.3472   -8.2622   31.2433 N   0  0  0  0  0  0  0  0  0  0  0  0
   -0.6912   -7.3231   30.4804 N   0  0  0  0  0  0  0  0  0  0  0  0
   -0.1984   -6.4067   31.2908 C   0  0  0  0  0  0  0  0  0  0  0  0
   -0.9354    2.0503   28.1110 H   0  0  0  0  0  0  0  0  0  0  0  0
   -2.0462    0.7014   27.8026 H   0  0  0  0  0  0  0  0  0  0  0  0
   -1.6493    1.1354   29.4645 H   0  0  0  0  0  0  0  0  0  0  0  0
    0.2485   -0.0571   27.3781 H   0  0  0  0  0  0  0  0  0  0  0  0
    0.7565    0.4848   28.9994 H   0  0  0  0  0  0  0  0  0  0  0  0
   -0.9305   -3.0180   30.3794 H   0  0  0  0  0  0  0  0  0  0  0  0
    1.4492   -4.6212   29.2010 H   0  0  0  0  0  0  0  0  0  0  0  0
    1.5189   -3.5763   32.0708 H   0  0  0  0  0  0  0  0  0  0  0  0
    1.0396   -4.2953   34.3201 H   0  0  0  0  0  0  0  0  0  0  0  0
    2.4911   -9.7551   40.7140 H   0  0  0  0  0  0  0  0  0  0  0  0
    0.1788   -8.7087   39.9850 H   0  0  0  0  0  0  0  0  0  0  0  0
   -0.8328   -7.7274   37.5293 H   0  0  0  0  0  0  0  0  0  0  0  0
   -1.6324   -8.4467   33.3520 H   0  0  0  0  0  0  0  0  0  0  0  0
  1  2  1  0
  2  3  1  0
  3  4  1  0
  4  5  2  0
  4  6  1  0
  6  7  2  3
  7  8  1  0
  8  9  2  0
  9 10  1  0
 10 11  2  0
 11 12  1  0
 12 13  1  0
 13 14  2  0
 14 15  1  0
 15 16  2  0
 15 17  1  0
 17 18  1  0
 18 19  1  0
 19 20  2  0
 20 21  1  0
 21 22  1  0
 11 23  1  0
 23 24  1  0
 24 25  2  0
 25 26  1  0
 26 27  2  0
 27  8  1  0
 22 13  1  0
 27 23  1  0
 21 17  2  0
  1 28  1  0
  1 29  1  0
  1 30  1  0
  2 31  1  0
  2 32  1  0
  6 33  1  0
  7 34  1  0
  9 35  1  0
 10 36  1  0
 19 37  1  0
 20 38  1  0
 22 39  1  0
 24 40  1  0
M  END
>  <Energy>  (241) 
-9.2497464266690894

>  <compound_id>  (241) 
2464

>  <target_id>  (241) 
1

>  <reference_id>  (241) 
167

>  <inspiration_ids>  (241) 
[167, 188]

>  <energy_score>  (241) 
-66.24130763664336

>  <distance_score>  (241) 
1.4836685126068763

>  <path>  (241) 
/opt/xchem-fragalysis-2/maxwin/BulkDock/SCRATCH/505736/C2464-P167/C2464-P167.minimised.mol

>  <scratch_subdir>  (241) 
/opt/xchem-fragalysis-2/maxwin/BulkDock/SCRATCH/505736/C2464-P167

>  <fragmenstein_runtime>  (241) 
2.4810004234313965

>  <fragmenstein_outcome>  (241) 
too moved

>  <fragmenstein_mode>  (241) 
expansion

>  <fragmenstein_error>  (241) 


$$$$
C2464-P188
     RDKit          3D

 40 43  0  0  0  0  0  0  0  0999 V2000
   -1.1822    0.9419   28.4475 C   0  0  0  0  0  0  0  0  0  0  0  0
   -1.1530   -0.0573   29.5865 C   0  0  0  0  0  0  0  0  0  0  0  0
   -0.4283   -1.2080   29.1406 O   0  0  0  0  0  0  0  0  0  0  0  0
   -0.6981   -2.3647   29.7918 C   0  0  0  0  0  0  0  0  0  0  0  0
   -1.4515   -2.5186   30.7380 O   0  0  0  0  0  0  0  0  0  0  0  0
    0.1581   -3.4032   29.1762 C   0  0  0  0  0  0  0  0  0  0  0  0
    0.5487   -4.5566   29.7404 C   0  0  0  0  0  0  0  0  0  0  0  0
    0.2607   -5.0355   31.0778 C   0  0  0  0  0  0  0  0  0  0  0  0
    0.6368   -4.2679   32.1249 C   0  0  0  0  0  0  0  0  0  0  0  0
    0.2958   -4.5923   33.4929 C   0  0  0  0  0  0  0  0  0  0  0  0
   -0.3851   -5.7217   33.7543 C   0  0  0  0  0  0  0  0  0  0  0  0
   -0.9175   -6.0665   35.3597 S   0  0  0  0  0  0  0  0  0  0  0  0
    0.4798   -6.8283   36.0900 C   0  0  0  0  0  0  0  0  0  0  0  0
    1.4663   -7.1965   35.3380 N   0  0  0  0  0  0  0  0  0  0  0  0
    2.5487   -7.8223   35.9259 C   0  0  0  0  0  0  0  0  0  0  0  0
    3.4332   -8.3139   35.2316 O   0  0  0  0  0  0  0  0  0  0  0  0
    2.4810   -7.9038   37.3723 C   0  0  0  0  0  0  0  0  0  0  0  0
    3.6870   -8.5624   38.3712 S   0  0  0  0  0  0  0  0  0  0  0  0
    2.6911   -8.3918   39.7644 C   0  0  0  0  0  0  0  0  0  0  0  0
    1.4808   -7.7949   39.4718 C   0  0  0  0  0  0  0  0  0  0  0  0
    1.3857   -7.5095   38.0926 C   0  0  0  0  0  0  0  0  0  0  0  0
    0.3579   -6.9414   37.4486 N   0  0  0  0  0  0  0  0  0  0  0  0
   -0.7010   -6.5675   32.6863 N   0  0  0  0  0  0  0  0  0  0  0  0
   -1.3536   -7.7690   32.6330 C   0  0  0  0  0  0  0  0  0  0  0  0
   -1.4269   -8.2045   31.3962 N   0  0  0  0  0  0  0  0  0  0  0  0
   -0.8056   -7.2775   30.5946 N   0  0  0  0  0  0  0  0  0  0  0  0
   -0.3868   -6.2871   31.3614 C   0  0  0  0  0  0  0  0  0  0  0  0
   -1.6622    0.5053   27.5650 H   0  0  0  0  0  0  0  0  0  0  0  0
   -1.7195    1.8501   28.7257 H   0  0  0  0  0  0  0  0  0  0  0  0
   -0.1642    1.2141   28.1490 H   0  0  0  0  0  0  0  0  0  0  0  0
   -0.6302    0.3715   30.4477 H   0  0  0  0  0  0  0  0  0  0  0  0
   -2.1727   -0.3186   29.8828 H   0  0  0  0  0  0  0  0  0  0  0  0
    0.4722   -3.1744   28.1659 H   0  0  0  0  0  0  0  0  0  0  0  0
    1.1478   -5.2418   29.1461 H   0  0  0  0  0  0  0  0  0  0  0  0
    1.1454   -3.3175   31.9788 H   0  0  0  0  0  0  0  0  0  0  0  0
    0.5524   -3.8707   34.2625 H   0  0  0  0  0  0  0  0  0  0  0  0
    3.0510   -8.7254   40.7283 H   0  0  0  0  0  0  0  0  0  0  0  0
    0.7206   -7.5944   40.2157 H   0  0  0  0  0  0  0  0  0  0  0  0
   -0.5036   -6.6373   37.8836 H   0  0  0  0  0  0  0  0  0  0  0  0
   -1.7503   -8.2658   33.5035 H   0  0  0  0  0  0  0  0  0  0  0  0
  1  2  1  0
  2  3  1  0
  3  4  1  0
  4  5  2  0
  4  6  1  0
  6  7  2  3
  7  8  1  0
  8  9  2  0
  9 10  1  0
 10 11  2  0
 11 12  1  0
 12 13  1  0
 13 14  2  0
 14 15  1  0
 15 16  2  0
 15 17  1  0
 17 18  1  0
 18 19  1  0
 19 20  2  0
 20 21  1  0
 21 22  1  0
 11 23  1  0
 23 24  1  0
 24 25  2  0
 25 26  1  0
 26 27  2  0
 27  8  1  0
 22 13  1  0
 27 23  1  0
 21 17  2  0
  1 28  1  0
  1 29  1  0
  1 30  1  0
  2 31  1  0
  2 32  1  0
  6 33  1  0
  7 34  1  0
  9 35  1  0
 10 36  1  0
 19 37  1  0
 20 38  1  0
 22 39  1  0
 24 40  1  0
M  END
>  <Energy>  (242) 
-20.2084049642027

>  <compound_id>  (242) 
2464

>  <target_id>  (242) 
1

>  <reference_id>  (242) 
188

>  <inspiration_ids>  (242) 
[167, 188]

>  <energy_score>  (242) 
-77.19996617417613

>  <distance_score>  (242) 
1.1508904709091647

>  <path>  (242) 
/opt/xchem-fragalysis-2/maxwin/BulkDock/SCRATCH/505736/C2464-P188/C2464-P188.minimised.mol

>  <scratch_subdir>  (242) 
/opt/xchem-fragalysis-2/maxwin/BulkDock/SCRATCH/505736/C2464-P188

>  <fragmenstein_runtime>  (242) 
2.426486015319824

>  <fragmenstein_outcome>  (242) 
too moved

>  <fragmenstein_mode>  (242) 
expansion

>  <fragmenstein_error>  (242) 


$$$$
C2464-P167
     RDKit          3D

 40 43  0  0  0  0  0  0  0  0999 V2000
   -1.1951    0.4898   27.9814 C   0  0  0  0  0  0  0  0  0  0  0  0
    0.0752   -0.1816   28.4694 C   0  0  0  0  0  0  0  0  0  0  0  0
   -0.0918   -1.5621   28.8362 O   0  0  0  0  0  0  0  0  0  0  0  0
   -0.8636   -1.7790   29.9179 C   0  0  0  0  0  0  0  0  0  0  0  0
   -1.5856   -0.9726   30.4889 O   0  0  0  0  0  0  0  0  0  0  0  0
   -0.6909   -3.1299   30.4747 C   0  0  0  0  0  0  0  0  0  0  0  0
    0.1390   -4.1192   30.0845 C   0  0  0  0  0  0  0  0  0  0  0  0
    0.4486   -5.1430   31.0853 C   0  0  0  0  0  0  0  0  0  0  0  0
    1.1643   -4.6561   32.1305 C   0  0  0  0  0  0  0  0  0  0  0  0
    0.9401   -5.1238   33.4818 C   0  0  0  0  0  0  0  0  0  0  0  0
    0.0471   -6.1059   33.6936 C   0  0  0  0  0  0  0  0  0  0  0  0
   -0.5835   -6.3692   35.2657 S   0  0  0  0  0  0  0  0  0  0  0  0
    0.5750   -7.4039   36.0364 C   0  0  0  0  0  0  0  0  0  0  0  0
    1.6782   -7.6676   35.4143 N   0  0  0  0  0  0  0  0  0  0  0  0
    2.6196   -8.4420   36.0589 C   0  0  0  0  0  0  0  0  0  0  0  0
    3.5624   -8.9152   35.4354 O   0  0  0  0  0  0  0  0  0  0  0  0
    2.3431   -8.6666   37.4594 C   0  0  0  0  0  0  0  0  0  0  0  0
    3.4154   -9.3865   38.5562 S   0  0  0  0  0  0  0  0  0  0  0  0
    2.2289   -9.3505   39.8030 C   0  0  0  0  0  0  0  0  0  0  0  0
    1.0423   -8.7822   39.3819 C   0  0  0  0  0  0  0  0  0  0  0  0
    1.1343   -8.3769   38.0349 C   0  0  0  0  0  0  0  0  0  0  0  0
    0.1873   -7.7914   37.2888 N   0  0  0  0  0  0  0  0  0  0  0  0
   -0.4687   -6.7898   32.5929 N   0  0  0  0  0  0  0  0  0  0  0  0
   -1.2527   -7.9084   32.4879 C   0  0  0  0  0  0  0  0  0  0  0  0
   -1.4224   -8.2242   31.2231 N   0  0  0  0  0  0  0  0  0  0  0  0
   -0.7743   -7.2771   30.4629 N   0  0  0  0  0  0  0  0  0  0  0  0
   -0.2404   -6.3908   31.2799 C   0  0  0  0  0  0  0  0  0  0  0  0
   -1.8653    0.7337   28.8088 H   0  0  0  0  0  0  0  0  0  0  0  0
   -1.7426   -0.1603   27.2925 H   0  0  0  0  0  0  0  0  0  0  0  0
   -0.9574    1.4285   27.4716 H   0  0  0  0  0  0  0  0  0  0  0  0
    0.8228   -0.1654   27.6709 H   0  0  0  0  0  0  0  0  0  0  0  0
    0.5077    0.3689   29.3136 H   0  0  0  0  0  0  0  0  0  0  0  0
   -1.2209   -3.2104   31.4231 H   0  0  0  0  0  0  0  0  0  0  0  0
    0.7174   -4.0786   29.1685 H   0  0  0  0  0  0  0  0  0  0  0  0
    1.6643   -3.6887   32.0704 H   0  0  0  0  0  0  0  0  0  0  0  0
    1.3497   -4.5279   34.2933 H   0  0  0  0  0  0  0  0  0  0  0  0
    2.4528   -9.7708   40.7740 H   0  0  0  0  0  0  0  0  0  0  0  0
    0.1644   -8.6984   40.0093 H   0  0  0  0  0  0  0  0  0  0  0  0
   -0.8031   -7.7204   37.5368 H   0  0  0  0  0  0  0  0  0  0  0  0
   -1.6484   -8.4513   33.3357 H   0  0  0  0  0  0  0  0  0  0  0  0
  1  2  1  0
  2  3  1  0
  3  4  1  0
  4  5  2  0
  4  6  1  0
  6  7  2  3
  7  8  1  0
  8  9  2  0
  9 10  1  0
 10 11  2  0
 11 12  1  0
 12 13  1  0
 13 14  2  0
 14 15  1  0
 15 16  2  0
 15 17  1  0
 17 18  1  0
 18 19  1  0
 19 20  2  0
 20 21  1  0
 21 22  1  0
 11 23  1  0
 23 24  1  0
 24 25  2  0
 25 26  1  0
 26 27  2  0
 27  8  1  0
 22 13  1  0
 27 23  1  0
 21 17  2  0
  1 28  1  0
  1 29  1  0
  1 30  1  0
  2 31  1  0
  2 32  1  0
  6 33  1  0
  7 34  1  0
  9 35  1  0
 10 36  1  0
 19 37  1  0
 20 38  1  0
 22 39  1  0
 24 40  1  0
M  END
>  <Energy>  (243) 
3.6442781329998573

>  <compound_id>  (243) 
2464

>  <target_id>  (243) 
1

>  <reference_id>  (243) 
167

>  <inspiration_ids>  (243) 
[167, 189]

>  <energy_score>  (243) 
-62.7005660061983

>  <distance_score>  (243) 
1.14664779767899

>  <path>  (243) 
/opt/xchem-fragalysis-2/maxwin/BulkDock/SCRATCH/505736/C2464-P167/C2464-P167.minimised.mol

>  <scratch_subdir>  (243) 
/opt/xchem-fragalysis-2/maxwin/BulkDock/SCRATCH/505736/C2464-P167

>  <fragmenstein_runtime>  (243) 
4.092795133590698

>  <fragmenstein_outcome>  (243) 
too moved

>  <fragmenstein_mode>  (243) 
expansion

>  <fragmenstein_error>  (243) 


$$$$
C2464-P189
     RDKit          3D

 40 43  0  0  0  0  0  0  0  0999 V2000
   -1.3436    0.7323   28.8420 C   0  0  0  0  0  0  0  0  0  0  0  0
   -1.0929   -0.7564   28.7062 C   0  0  0  0  0  0  0  0  0  0  0  0
   -1.6959   -1.4118   29.8408 O   0  0  0  0  0  0  0  0  0  0  0  0
   -1.5053   -2.7198   30.1411 C   0  0  0  0  0  0  0  0  0  0  0  0
   -2.1038   -3.2437   31.0765 O   0  0  0  0  0  0  0  0  0  0  0  0
   -0.5104   -3.4585   29.3269 C   0  0  0  0  0  0  0  0  0  0  0  0
    0.2338   -4.4885   29.7721 C   0  0  0  0  0  0  0  0  0  0  0  0
    0.1969   -5.0427   31.1111 C   0  0  0  0  0  0  0  0  0  0  0  0
    0.6414   -4.2653   32.1238 C   0  0  0  0  0  0  0  0  0  0  0  0
    0.3886   -4.5860   33.5130 C   0  0  0  0  0  0  0  0  0  0  0  0
   -0.2964   -5.7023   33.8194 C   0  0  0  0  0  0  0  0  0  0  0  0
   -0.8064   -5.9913   35.4444 S   0  0  0  0  0  0  0  0  0  0  0  0
    0.5420   -6.8451   36.1505 C   0  0  0  0  0  0  0  0  0  0  0  0
    1.4988   -7.2527   35.3829 N   0  0  0  0  0  0  0  0  0  0  0  0
    2.5599   -7.9312   35.9497 C   0  0  0  0  0  0  0  0  0  0  0  0
    3.4206   -8.4343   35.2353 O   0  0  0  0  0  0  0  0  0  0  0  0
    2.4882   -8.0545   37.3915 C   0  0  0  0  0  0  0  0  0  0  0  0
    3.6667   -8.7931   38.3656 S   0  0  0  0  0  0  0  0  0  0  0  0
    2.6815   -8.6214   39.7657 C   0  0  0  0  0  0  0  0  0  0  0  0
    1.5018   -7.9556   39.4972 C   0  0  0  0  0  0  0  0  0  0  0  0
    1.4148   -7.6291   38.1273 C   0  0  0  0  0  0  0  0  0  0  0  0
    0.4118   -6.9963   37.5039 N   0  0  0  0  0  0  0  0  0  0  0  0
   -0.6538   -6.5683   32.7802 N   0  0  0  0  0  0  0  0  0  0  0  0
   -1.2903   -7.7805   32.7755 C   0  0  0  0  0  0  0  0  0  0  0  0
   -1.4063   -8.2411   31.5505 N   0  0  0  0  0  0  0  0  0  0  0  0
   -0.8406   -7.3150   30.7063 N   0  0  0  0  0  0  0  0  0  0  0  0
   -0.4018   -6.3070   31.4388 C   0  0  0  0  0  0  0  0  0  0  0  0
   -0.9040    1.1120   29.7699 H   0  0  0  0  0  0  0  0  0  0  0  0
   -2.4168    0.9392   28.8892 H   0  0  0  0  0  0  0  0  0  0  0  0
   -0.9152    1.2790   27.9974 H   0  0  0  0  0  0  0  0  0  0  0  0
   -1.5614   -1.1307   27.7916 H   0  0  0  0  0  0  0  0  0  0  0  0
   -0.0135   -0.9378   28.6892 H   0  0  0  0  0  0  0  0  0  0  0  0
   -0.4361   -3.1711   28.2888 H   0  0  0  0  0  0  0  0  0  0  0  0
    0.8942   -5.0036   29.0815 H   0  0  0  0  0  0  0  0  0  0  0  0
    1.0776   -3.2863   31.9369 H   0  0  0  0  0  0  0  0  0  0  0  0
    0.6700   -3.8493   34.2597 H   0  0  0  0  0  0  0  0  0  0  0  0
    3.0198   -9.0135   40.7156 H   0  0  0  0  0  0  0  0  0  0  0  0
    0.7544   -7.7498   40.2528 H   0  0  0  0  0  0  0  0  0  0  0  0
   -0.4019   -6.6074   37.9657 H   0  0  0  0  0  0  0  0  0  0  0  0
   -1.6397   -8.2693   33.6706 H   0  0  0  0  0  0  0  0  0  0  0  0
  1  2  1  0
  2  3  1  0
  3  4  1  0
  4  5  2  0
  4  6  1  0
  6  7  2  3
  7  8  1  0
  8  9  2  0
  9 10  1  0
 10 11  2  0
 11 12  1  0
 12 13  1  0
 13 14  2  0
 14 15  1  0
 15 16  2  0
 15 17  1  0
 17 18  1  0
 18 19  1  0
 19 20  2  0
 20 21  1  0
 21 22  1  0
 11 23  1  0
 23 24  1  0
 24 25  2  0
 25 26  1  0
 26 27  2  0
 27  8  1  0
 22 13  1  0
 27 23  1  0
 21 17  2  0
  1 28  1  0
  1 29  1  0
  1 30  1  0
  2 31  1  0
  2 32  1  0
  6 33  1  0
  7 34  1  0
  9 35  1  0
 10 36  1  0
 19 37  1  0
 20 38  1  0
 22 39  1  0
 24 40  1  0
M  END
>  <Energy>  (244) 
-5.1818897978921834

>  <compound_id>  (244) 
2464

>  <target_id>  (244) 
1

>  <reference_id>  (244) 
189

>  <inspiration_ids>  (244) 
[167, 189]

>  <energy_score>  (244) 
-71.52673393708963

>  <distance_score>  (244) 
1.0271658335785188

>  <path>  (244) 
/opt/xchem-fragalysis-2/maxwin/BulkDock/SCRATCH/505736/C2464-P189/C2464-P189.minimised.mol

>  <scratch_subdir>  (244) 
/opt/xchem-fragalysis-2/maxwin/BulkDock/SCRATCH/505736/C2464-P189

>  <fragmenstein_runtime>  (244) 
4.399222373962402

>  <fragmenstein_outcome>  (244) 
too moved

>  <fragmenstein_mode>  (244) 
expansion

>  <fragmenstein_error>  (244) 


$$$$
C2465-P167
     RDKit          3D

 47 52  0  0  0  0  0  0  0  0999 V2000
    2.9177   -8.7702   35.0090 O   0  0  0  0  0  0  0  0  0  0  0  0
    2.2414   -8.0391   35.7328 C   0  0  0  0  0  0  0  0  0  0  0  0
    1.5544   -6.9858   35.1815 N   0  0  0  0  0  0  0  0  0  0  0  0
    0.6298   -6.2474   35.8794 C   0  0  0  0  0  0  0  0  0  0  0  0
   -0.1739   -4.9726   34.9903 S   0  0  0  0  0  0  0  0  0  0  0  0
    0.1545   -5.1716   33.3073 C   0  0  0  0  0  0  0  0  0  0  0  0
    0.6876   -4.2144   32.5102 C   0  0  0  0  0  0  0  0  0  0  0  0
    0.5598   -2.8412   32.7861 N   0  0  0  0  0  0  0  0  0  0  0  0
   -0.9290   -2.1825   32.2413 S   0  0  0  0  0  0  0  0  0  0  0  0
   -1.2551   -1.0916   33.1242 O   0  0  0  0  0  0  0  0  0  0  0  0
   -1.8685   -3.2340   31.9263 O   0  0  0  0  0  0  0  0  0  0  0  0
   -0.3631   -1.5283   30.7914 N   0  0  0  0  0  0  0  0  0  0  0  0
   -1.0663   -1.8493   29.5037 C   0  0  0  0  0  0  0  0  0  0  0  0
   -1.3212   -0.5935   28.6604 C   0  0  0  0  0  0  0  0  0  0  0  0
   -0.1281    0.1476   28.3816 O   0  0  0  0  0  0  0  0  0  0  0  0
    0.7627    0.2381   29.4948 C   0  0  0  0  0  0  0  0  0  0  0  0
    0.1340   -0.1257   30.8432 C   0  0  0  0  0  0  0  0  0  0  0  0
    1.1288   -4.6577   31.0167 C   0  0  0  0  0  0  0  0  0  0  0  0
    1.5128   -5.9611   30.7056 C   0  0  0  0  0  0  0  0  0  0  0  0
    0.0895   -6.3914   31.1070 C   0  0  0  0  0  0  0  0  0  0  0  0
   -0.1703   -5.1413   30.2131 C   0  0  0  0  0  0  0  0  0  0  0  0
   -0.4555   -7.6507   30.6277 N   0  0  0  0  0  0  0  0  0  0  0  0
   -1.0258   -8.2337   31.6068 N   0  0  0  0  0  0  0  0  0  0  0  0
   -0.8950   -7.4903   32.7634 C   0  0  0  0  0  0  0  0  0  0  0  0
   -0.2192   -6.3597   32.5583 C   0  0  0  0  0  0  0  0  0  0  0  0
    0.3511   -6.3894   37.1394 N   0  0  0  0  0  0  0  0  0  0  0  0
    1.0881   -7.3945   37.7843 C   0  0  0  0  0  0  0  0  0  0  0  0
    0.9583   -7.7245   39.1512 C   0  0  0  0  0  0  0  0  0  0  0  0
    1.8547   -8.7142   39.5081 C   0  0  0  0  0  0  0  0  0  0  0  0
    2.8587   -9.1818   38.1907 S   0  0  0  0  0  0  0  0  0  0  0  0
    2.0189   -8.1580   37.1376 C   0  0  0  0  0  0  0  0  0  0  0  0
    1.7140   -6.8165   34.2074 H   0  0  0  0  0  0  0  0  0  0  0  0
    1.2908   -2.2538   32.3928 H   0  0  0  0  0  0  0  0  0  0  0  0
   -2.0152   -2.3578   29.6788 H   0  0  0  0  0  0  0  0  0  0  0  0
   -0.4112   -2.5276   28.9461 H   0  0  0  0  0  0  0  0  0  0  0  0
   -2.0181    0.0763   29.1748 H   0  0  0  0  0  0  0  0  0  0  0  0
   -1.7762   -0.8664   27.7033 H   0  0  0  0  0  0  0  0  0  0  0  0
    1.6102   -0.4250   29.2854 H   0  0  0  0  0  0  0  0  0  0  0  0
    1.1509    1.2613   29.5247 H   0  0  0  0  0  0  0  0  0  0  0  0
   -0.6981    0.5515   31.0667 H   0  0  0  0  0  0  0  0  0  0  0  0
    0.8918   -0.0294   31.6275 H   0  0  0  0  0  0  0  0  0  0  0  0
    2.0481   -6.2780   29.7981 H   0  0  0  0  0  0  0  0  0  0  0  0
   -1.0715   -4.5802   30.4093 H   0  0  0  0  0  0  0  0  0  0  0  0
   -0.0570   -5.2107   29.1287 H   0  0  0  0  0  0  0  0  0  0  0  0
   -1.3554   -7.8314   33.6834 H   0  0  0  0  0  0  0  0  0  0  0  0
    0.2485   -7.2775   39.8334 H   0  0  0  0  0  0  0  0  0  0  0  0
    1.9763   -9.1839   40.4744 H   0  0  0  0  0  0  0  0  0  0  0  0
  1  2  2  0
  2  3  1  0
  3  4  1  0
  4  5  1  0
  5  6  1  0
  6  7  2  0
  7  8  1  0
  8  9  1  0
  9 10  2  0
  9 11  2  0
  9 12  1  0
 12 13  1  0
 13 14  1  0
 14 15  1  0
 15 16  1  0
 16 17  1  0
  7 18  1  0
 18 19  2  0
 19 20  1  0
 20 21  1  0
 20 22  1  0
 22 23  2  0
 23 24  1  0
 24 25  2  0
  4 26  2  0
 26 27  1  0
 27 28  1  0
 28 29  2  0
 29 30  1  0
 30 31  1  0
 31  2  1  0
 25  6  1  0
 31 27  2  0
 17 12  1  0
 21 18  1  0
 25 20  1  0
  3 32  1  0
  8 33  1  0
 13 34  1  0
 13 35  1  0
 14 36  1  0
 14 37  1  0
 16 38  1  0
 16 39  1  0
 17 40  1  0
 17 41  1  0
 19 42  1  0
 21 43  1  0
 21 44  1  0
 24 45  1  0
 28 46  1  0
 29 47  1  0
M  END
>  <Energy>  (245) 
-34.089913131130174

>  <compound_id>  (245) 
2465

>  <target_id>  (245) 
1

>  <reference_id>  (245) 
167

>  <inspiration_ids>  (245) 
[167, 190]

>  <energy_score>  (245) 
-217.95226868658634

>  <distance_score>  (245) 
0.8971681286149513

>  <path>  (245) 
/opt/xchem-fragalysis-2/maxwin/BulkDock/SCRATCH/505736/C2465-P167/C2465-P167.minimised.mol

>  <scratch_subdir>  (245) 
/opt/xchem-fragalysis-2/maxwin/BulkDock/SCRATCH/505736/C2465-P167

>  <fragmenstein_runtime>  (245) 
2.067274570465088

>  <fragmenstein_outcome>  (245) 
acceptable

>  <fragmenstein_mode>  (245) 
expansion

>  <fragmenstein_error>  (245) 


$$$$
C2465-P190
     RDKit          3D

 47 52  0  0  0  0  0  0  0  0999 V2000
    3.1777   -8.4168   35.0878 O   0  0  0  0  0  0  0  0  0  0  0  0
    2.4188   -7.7406   35.7814 C   0  0  0  0  0  0  0  0  0  0  0  0
    1.6120   -6.7999   35.1894 N   0  0  0  0  0  0  0  0  0  0  0  0
    0.5283   -6.2467   35.8272 C   0  0  0  0  0  0  0  0  0  0  0  0
   -0.4312   -5.1224   34.8895 S   0  0  0  0  0  0  0  0  0  0  0  0
    0.0065   -5.3096   33.2327 C   0  0  0  0  0  0  0  0  0  0  0  0
    0.5878   -4.3616   32.4588 C   0  0  0  0  0  0  0  0  0  0  0  0
    0.5260   -2.9927   32.7717 N   0  0  0  0  0  0  0  0  0  0  0  0
   -0.9347   -2.2459   32.2723 S   0  0  0  0  0  0  0  0  0  0  0  0
   -1.1743   -1.1521   33.1785 O   0  0  0  0  0  0  0  0  0  0  0  0
   -1.9429   -3.2421   31.9838 O   0  0  0  0  0  0  0  0  0  0  0  0
   -0.3644   -1.6016   30.8249 N   0  0  0  0  0  0  0  0  0  0  0  0
   -1.0294   -1.9220   29.5228 C   0  0  0  0  0  0  0  0  0  0  0  0
   -1.2971   -0.6537   28.7032 C   0  0  0  0  0  0  0  0  0  0  0  0
   -0.1142    0.1060   28.4320 O   0  0  0  0  0  0  0  0  0  0  0  0
    0.8110    0.1311   29.5200 C   0  0  0  0  0  0  0  0  0  0  0  0
    0.1923   -0.2206   30.8761 C   0  0  0  0  0  0  0  0  0  0  0  0
    1.0029   -4.7958   30.9456 C   0  0  0  0  0  0  0  0  0  0  0  0
    1.3235   -6.1054   30.5898 C   0  0  0  0  0  0  0  0  0  0  0  0
   -0.0958   -6.4963   31.0197 C   0  0  0  0  0  0  0  0  0  0  0  0
   -0.3442   -5.2152   30.1709 C   0  0  0  0  0  0  0  0  0  0  0  0
   -0.6785   -7.7368   30.5319 N   0  0  0  0  0  0  0  0  0  0  0  0
   -1.1971   -8.3487   31.5214 N   0  0  0  0  0  0  0  0  0  0  0  0
   -1.0236   -7.6279   32.6845 C   0  0  0  0  0  0  0  0  0  0  0  0
   -0.3684   -6.4879   32.4760 C   0  0  0  0  0  0  0  0  0  0  0  0
    0.1837   -6.4732   37.0584 N   0  0  0  0  0  0  0  0  0  0  0  0
    1.0812   -7.2861   37.7689 C   0  0  0  0  0  0  0  0  0  0  0  0
    0.9693   -7.5892   39.1436 C   0  0  0  0  0  0  0  0  0  0  0  0
    2.0342   -8.3629   39.5672 C   0  0  0  0  0  0  0  0  0  0  0  0
    3.1704   -8.6465   38.3046 S   0  0  0  0  0  0  0  0  0  0  0  0
    2.1759   -7.8573   37.1841 C   0  0  0  0  0  0  0  0  0  0  0  0
    1.7884   -6.6152   34.2194 H   0  0  0  0  0  0  0  0  0  0  0  0
    1.2808   -2.4259   32.3916 H   0  0  0  0  0  0  0  0  0  0  0  0
   -1.9666   -2.4590   29.6720 H   0  0  0  0  0  0  0  0  0  0  0  0
   -0.3467   -2.5727   28.9656 H   0  0  0  0  0  0  0  0  0  0  0  0
   -1.9905    0.0009   29.2400 H   0  0  0  0  0  0  0  0  0  0  0  0
   -1.7583   -0.9090   27.7448 H   0  0  0  0  0  0  0  0  0  0  0  0
    1.6169   -0.5722   29.2797 H   0  0  0  0  0  0  0  0  0  0  0  0
    1.2523    1.1322   29.5551 H   0  0  0  0  0  0  0  0  0  0  0  0
   -0.6087    0.4873   31.1180 H   0  0  0  0  0  0  0  0  0  0  0  0
    0.9666   -0.1625   31.6479 H   0  0  0  0  0  0  0  0  0  0  0  0
    1.8100   -6.4376   29.6591 H   0  0  0  0  0  0  0  0  0  0  0  0
   -1.2018   -4.6127   30.4303 H   0  0  0  0  0  0  0  0  0  0  0  0
   -0.2936   -5.2610   29.0817 H   0  0  0  0  0  0  0  0  0  0  0  0
   -1.4422   -7.9883   33.6142 H   0  0  0  0  0  0  0  0  0  0  0  0
    0.1655   -7.2674   39.7927 H   0  0  0  0  0  0  0  0  0  0  0  0
    2.2112   -8.7617   40.5571 H   0  0  0  0  0  0  0  0  0  0  0  0
  1  2  2  0
  2  3  1  0
  3  4  1  0
  4  5  1  0
  5  6  1  0
  6  7  2  0
  7  8  1  0
  8  9  1  0
  9 10  2  0
  9 11  2  0
  9 12  1  0
 12 13  1  0
 13 14  1  0
 14 15  1  0
 15 16  1  0
 16 17  1  0
  7 18  1  0
 18 19  2  0
 19 20  1  0
 20 21  1  0
 20 22  1  0
 22 23  2  0
 23 24  1  0
 24 25  2  0
  4 26  2  0
 26 27  1  0
 27 28  1  0
 28 29  2  0
 29 30  1  0
 30 31  1  0
 31  2  1  0
 25  6  1  0
 31 27  2  0
 17 12  1  0
 21 18  1  0
 25 20  1  0
  3 32  1  0
  8 33  1  0
 13 34  1  0
 13 35  1  0
 14 36  1  0
 14 37  1  0
 16 38  1  0
 16 39  1  0
 17 40  1  0
 17 41  1  0
 19 42  1  0
 21 43  1  0
 21 44  1  0
 24 45  1  0
 28 46  1  0
 29 47  1  0
M  END
>  <Energy>  (246) 
-35.959889096946384

>  <compound_id>  (246) 
2465

>  <target_id>  (246) 
1

>  <reference_id>  (246) 
190

>  <inspiration_ids>  (246) 
[167, 190]

>  <energy_score>  (246) 
-219.82224465240017

>  <distance_score>  (246) 
0.8852638403153683

>  <path>  (246) 
/opt/xchem-fragalysis-2/maxwin/BulkDock/SCRATCH/505736/C2465-P190/C2465-P190.minimised.mol

>  <scratch_subdir>  (246) 
/opt/xchem-fragalysis-2/maxwin/BulkDock/SCRATCH/505736/C2465-P190

>  <fragmenstein_runtime>  (246) 
2.909597635269165

>  <fragmenstein_outcome>  (246) 
acceptable

>  <fragmenstein_mode>  (246) 
expansion

>  <fragmenstein_error>  (246) 


$$$$
C2485-P167
     RDKit          3D

 38 40  0  0  0  0  0  0  0  0999 V2000
   -0.9900   -5.4493   35.5790 O   0  0  0  0  0  0  0  0  0  0  0  0
    0.3239   -5.6906   35.0529 S   0  0  0  0  0  0  0  0  0  0  0  0
    1.2800   -4.6187   34.9472 O   0  0  0  0  0  0  0  0  0  0  0  0
    0.2191   -6.4468   33.5410 N   0  0  0  0  0  0  0  0  0  0  0  0
   -0.0259   -5.5209   32.4144 C   0  0  0  0  0  0  0  0  0  0  0  0
    0.1698   -6.2671   31.0854 C   0  0  0  0  0  0  0  0  0  0  0  0
   -0.3799   -7.6302   30.9794 N   0  0  0  0  0  0  0  0  0  0  0  0
   -1.2089   -7.9906   32.1368 C   0  0  0  0  0  0  0  0  0  0  0  0
   -0.7350   -7.5896   33.5428 C   0  0  0  0  0  0  0  0  0  0  0  0
    1.0210   -6.9566   35.9192 N   0  0  0  0  0  0  0  0  0  0  0  0
    2.4813   -7.0952   35.7604 C   0  0  0  0  0  0  0  0  0  0  0  0
    2.8849   -8.4653   36.2675 C   0  0  0  0  0  0  0  0  0  0  0  0
    2.4171   -8.7329   37.6904 C   0  0  0  0  0  0  0  0  0  0  0  0
    3.1379   -7.9328   38.6794 N   0  0  0  0  0  0  0  0  0  0  0  0
    2.3454   -8.0800   39.8575 N   0  0  0  0  0  0  0  0  0  0  0  0
    0.9725   -8.2928   39.4647 N   0  0  0  0  0  0  0  0  0  0  0  0
    0.9863   -8.3272   37.9877 C   0  0  0  0  0  0  0  0  0  0  0  0
    0.6392   -6.9655   37.3663 C   0  0  0  0  0  0  0  0  0  0  0  0
   -1.0329   -5.1094   32.4797 H   0  0  0  0  0  0  0  0  0  0  0  0
    0.6819   -4.6857   32.4424 H   0  0  0  0  0  0  0  0  0  0  0  0
    1.2468   -6.3296   30.8919 H   0  0  0  0  0  0  0  0  0  0  0  0
   -0.2308   -5.6545   30.2726 H   0  0  0  0  0  0  0  0  0  0  0  0
    0.4018   -8.2851   30.9510 H   0  0  0  0  0  0  0  0  0  0  0  0
   -2.1883   -7.5624   31.9632 H   0  0  0  0  0  0  0  0  0  0  0  0
   -1.3926   -9.0683   32.1108 H   0  0  0  0  0  0  0  0  0  0  0  0
   -0.2198   -8.4298   34.0049 H   0  0  0  0  0  0  0  0  0  0  0  0
   -1.6190   -7.3812   34.1520 H   0  0  0  0  0  0  0  0  0  0  0  0
    2.7574   -7.0195   34.7031 H   0  0  0  0  0  0  0  0  0  0  0  0
    3.0087   -6.3041   36.3054 H   0  0  0  0  0  0  0  0  0  0  0  0
    3.9725   -8.5842   36.1924 H   0  0  0  0  0  0  0  0  0  0  0  0
    2.4466   -9.2104   35.5969 H   0  0  0  0  0  0  0  0  0  0  0  0
    2.5782   -9.7934   37.9233 H   0  0  0  0  0  0  0  0  0  0  0  0
    4.0686   -8.3283   38.8288 H   0  0  0  0  0  0  0  0  0  0  0  0
    2.4212   -7.2545   40.4671 H   0  0  0  0  0  0  0  0  0  0  0  0
    0.6734   -9.2257   39.7774 H   0  0  0  0  0  0  0  0  0  0  0  0
    0.2819   -9.0747   37.6131 H   0  0  0  0  0  0  0  0  0  0  0  0
   -0.4336   -6.8094   37.4947 H   0  0  0  0  0  0  0  0  0  0  0  0
    1.1496   -6.1386   37.8773 H   0  0  0  0  0  0  0  0  0  0  0  0
  1  2  2  0
  2  3  2  0
  2  4  1  0
  4  5  1  0
  5  6  1  0
  6  7  1  0
  7  8  1  0
  8  9  1  0
  2 10  1  0
 10 11  1  0
 11 12  1  0
 12 13  1  0
 13 14  1  0
 14 15  1  0
 15 16  1  0
 16 17  1  0
 17 18  1  0
  9  4  1  0
 18 10  1  0
 17 13  1  0
  5 19  1  0
  5 20  1  0
  6 21  1  0
  6 22  1  0
  7 23  1  0
  8 24  1  0
  8 25  1  0
  9 26  1  0
  9 27  1  0
 11 28  1  0
 11 29  1  0
 12 30  1  0
 12 31  1  0
 13 32  1  0
 14 33  1  0
 15 34  1  0
 16 35  1  0
 17 36  1  0
 18 37  1  0
 18 38  1  0
M  END
>  <Energy>  (247) 
-53.988138230270302

>  <compound_id>  (247) 
2485

>  <target_id>  (247) 
1

>  <reference_id>  (247) 
167

>  <inspiration_ids>  (247) 
[167, 195]

>  <energy_score>  (247) 
-58.610245038687225

>  <distance_score>  (247) 
1.7484198407307023

>  <path>  (247) 
/opt/xchem-fragalysis-2/maxwin/BulkDock/SCRATCH/505736/C2485-P167/C2485-P167.minimised.mol

>  <scratch_subdir>  (247) 
/opt/xchem-fragalysis-2/maxwin/BulkDock/SCRATCH/505736/C2485-P167

>  <fragmenstein_runtime>  (247) 
2.9993553161621094

>  <fragmenstein_outcome>  (247) 
too moved

>  <fragmenstein_mode>  (247) 
expansion

>  <fragmenstein_error>  (247) 


$$$$
C2485-P195
     RDKit          3D

 38 40  0  0  0  0  0  0  0  0999 V2000
   -1.1877   -6.4279   35.8284 O   0  0  0  0  0  0  0  0  0  0  0  0
   -0.3736   -5.5340   35.0395 S   0  0  0  0  0  0  0  0  0  0  0  0
   -0.7075   -4.1421   34.8889 O   0  0  0  0  0  0  0  0  0  0  0  0
   -0.1291   -6.2113   33.5209 N   0  0  0  0  0  0  0  0  0  0  0  0
   -0.1225   -5.3103   32.3492 C   0  0  0  0  0  0  0  0  0  0  0  0
    0.3730   -6.0756   31.1035 C   0  0  0  0  0  0  0  0  0  0  0  0
   -0.2357   -7.3898   30.8276 N   0  0  0  0  0  0  0  0  0  0  0  0
   -1.2188   -7.7585   31.8449 C   0  0  0  0  0  0  0  0  0  0  0  0
   -0.8409   -7.4911   33.2985 C   0  0  0  0  0  0  0  0  0  0  0  0
    1.1729   -5.5564   35.7170 N   0  0  0  0  0  0  0  0  0  0  0  0
    2.1645   -6.5501   35.3165 C   0  0  0  0  0  0  0  0  0  0  0  0
    1.8452   -7.8706   35.9497 C   0  0  0  0  0  0  0  0  0  0  0  0
    1.7141   -7.8206   37.4607 C   0  0  0  0  0  0  0  0  0  0  0  0
    3.0137   -7.7160   38.1299 N   0  0  0  0  0  0  0  0  0  0  0  0
    2.6222   -7.4256   39.4561 N   0  0  0  0  0  0  0  0  0  0  0  0
    1.4807   -6.5660   39.4113 N   0  0  0  0  0  0  0  0  0  0  0  0
    0.9540   -6.6347   38.0226 C   0  0  0  0  0  0  0  0  0  0  0  0
    1.1863   -5.3378   37.2016 C   0  0  0  0  0  0  0  0  0  0  0  0
   -1.1306   -4.9199   32.1744 H   0  0  0  0  0  0  0  0  0  0  0  0
    0.5521   -4.4665   32.5300 H   0  0  0  0  0  0  0  0  0  0  0  0
    1.4536   -6.2266   31.2134 H   0  0  0  0  0  0  0  0  0  0  0  0
    0.2414   -5.4407   30.2206 H   0  0  0  0  0  0  0  0  0  0  0  0
    0.4967   -8.1015   30.8098 H   0  0  0  0  0  0  0  0  0  0  0  0
   -2.1356   -7.2227   31.6126 H   0  0  0  0  0  0  0  0  0  0  0  0
   -1.4651   -8.8187   31.7289 H   0  0  0  0  0  0  0  0  0  0  0  0
   -1.7584   -7.5654   33.8865 H   0  0  0  0  0  0  0  0  0  0  0  0
   -0.1690   -8.2678   33.6336 H   0  0  0  0  0  0  0  0  0  0  0  0
    2.2199   -6.6375   34.2274 H   0  0  0  0  0  0  0  0  0  0  0  0
    3.1590   -6.2008   35.6200 H   0  0  0  0  0  0  0  0  0  0  0  0
    2.6114   -8.5897   35.6428 H   0  0  0  0  0  0  0  0  0  0  0  0
    0.8891   -8.2092   35.5463 H   0  0  0  0  0  0  0  0  0  0  0  0
    1.2265   -8.7324   37.8126 H   0  0  0  0  0  0  0  0  0  0  0  0
    3.5514   -6.9408   37.7442 H   0  0  0  0  0  0  0  0  0  0  0  0
    3.3746   -7.1231   40.0854 H   0  0  0  0  0  0  0  0  0  0  0  0
    1.6929   -5.6022   39.6690 H   0  0  0  0  0  0  0  0  0  0  0  0
   -0.1171   -6.8536   38.0683 H   0  0  0  0  0  0  0  0  0  0  0  0
    0.4506   -4.5751   37.4844 H   0  0  0  0  0  0  0  0  0  0  0  0
    2.1627   -4.8984   37.4484 H   0  0  0  0  0  0  0  0  0  0  0  0
  1  2  2  0
  2  3  2  0
  2  4  1  0
  4  5  1  0
  5  6  1  0
  6  7  1  0
  7  8  1  0
  8  9  1  0
  2 10  1  0
 10 11  1  0
 11 12  1  0
 12 13  1  0
 13 14  1  0
 14 15  1  0
 15 16  1  0
 16 17  1  0
 17 18  1  0
  9  4  1  0
 18 10  1  0
 17 13  1  0
  5 19  1  0
  5 20  1  0
  6 21  1  0
  6 22  1  0
  7 23  1  0
  8 24  1  0
  8 25  1  0
  9 26  1  0
  9 27  1  0
 11 28  1  0
 11 29  1  0
 12 30  1  0
 12 31  1  0
 13 32  1  0
 14 33  1  0
 15 34  1  0
 16 35  1  0
 17 36  1  0
 18 37  1  0
 18 38  1  0
M  END
>  <Energy>  (248) 
-37.426822726159912

>  <compound_id>  (248) 
2485

>  <target_id>  (248) 
1

>  <reference_id>  (248) 
195

>  <inspiration_ids>  (248) 
[167, 195]

>  <energy_score>  (248) 
-42.04892953457627

>  <distance_score>  (248) 
1.9425338129253378

>  <path>  (248) 
/opt/xchem-fragalysis-2/maxwin/BulkDock/SCRATCH/505736/C2485-P195/C2485-P195.minimised.mol

>  <scratch_subdir>  (248) 
/opt/xchem-fragalysis-2/maxwin/BulkDock/SCRATCH/505736/C2485-P195

>  <fragmenstein_runtime>  (248) 
3.316427230834961

>  <fragmenstein_outcome>  (248) 
too moved

>  <fragmenstein_mode>  (248) 
expansion

>  <fragmenstein_error>  (248) 


$$$$
C2486-P167
     RDKit          3D

 54 56  0  0  0  0  0  0  0  0999 V2000
   -0.1652   -3.6432   31.0167 C   0  0  0  0  0  0  0  0  0  0  0  0
    0.3854   -4.6216   32.0465 C   0  0  0  0  0  0  0  0  0  0  0  0
   -0.1852   -5.9937   31.9198 C   0  0  0  0  0  0  0  0  0  0  0  0
   -0.1206   -6.6215   30.6960 N   0  0  0  0  0  0  0  0  0  0  0  0
   -0.6178   -7.8851   30.7817 C   0  0  0  0  0  0  0  0  0  0  0  0
   -1.0420   -8.0795   32.0705 C   0  0  0  0  0  0  0  0  0  0  0  0
   -0.6906   -6.9240   32.8219 C   0  0  0  0  0  0  0  0  0  0  0  0
   -0.7778   -6.8845   34.2481 N   0  0  0  0  0  0  0  0  0  0  0  0
   -0.6614   -8.0080   35.0271 C   0  0  0  0  0  0  0  0  0  0  0  0
   -0.2189   -7.5715   36.2449 C   0  0  0  0  0  0  0  0  0  0  0  0
    0.4949   -8.3333   37.2911 C   0  0  0  0  0  0  0  0  0  0  0  0
    1.8106   -7.7409   37.4897 N   0  0  0  0  0  0  0  0  0  0  0  0
    2.0970   -7.3336   38.8475 C   0  0  0  0  0  0  0  0  0  0  0  0
    1.1373   -6.2145   39.2720 C   0  0  0  0  0  0  0  0  0  0  0  0
    1.9946   -8.4255   39.8369 N   0  0  0  0  0  0  0  0  0  0  0  0
    2.7958   -9.5667   39.4248 N   0  0  0  0  0  0  0  0  0  0  0  0
    3.0120   -7.8563   36.3537 S   0  0  0  0  0  0  0  0  0  0  0  0
    2.5297   -8.4708   35.1304 O   0  0  0  0  0  0  0  0  0  0  0  0
    4.2248   -8.3498   36.9690 O   0  0  0  0  0  0  0  0  0  0  0  0
    3.3046   -6.2135   36.0086 N   0  0  0  0  0  0  0  0  0  0  0  0
    2.0984   -5.4108   35.7079 C   0  0  0  0  0  0  0  0  0  0  0  0
    2.3960   -4.0204   35.1623 C   0  0  0  0  0  0  0  0  0  0  0  0
    3.0905   -4.0532   33.8663 N   0  0  0  0  0  0  0  0  0  0  0  0
    3.8141   -5.3211   33.7031 C   0  0  0  0  0  0  0  0  0  0  0  0
    4.3833   -5.9458   35.0078 C   0  0  0  0  0  0  0  0  0  0  0  0
   -0.4605   -6.2220   36.2974 N   0  0  0  0  0  0  0  0  0  0  0  0
   -0.7320   -5.8029   35.0599 N   0  0  0  0  0  0  0  0  0  0  0  0
    0.2579   -2.6473   31.1835 H   0  0  0  0  0  0  0  0  0  0  0  0
    0.0840   -3.9410   29.9930 H   0  0  0  0  0  0  0  0  0  0  0  0
   -1.2546   -3.5637   31.0897 H   0  0  0  0  0  0  0  0  0  0  0  0
    1.4687   -4.6840   31.9122 H   0  0  0  0  0  0  0  0  0  0  0  0
    0.1895   -4.2231   33.0455 H   0  0  0  0  0  0  0  0  0  0  0  0
    0.2573   -6.1996   29.8575 H   0  0  0  0  0  0  0  0  0  0  0  0
   -0.5957   -8.5474   29.9279 H   0  0  0  0  0  0  0  0  0  0  0  0
   -1.4990   -8.9864   32.4411 H   0  0  0  0  0  0  0  0  0  0  0  0
   -0.6813   -8.9813   34.6042 H   0  0  0  0  0  0  0  0  0  0  0  0
    0.6193   -9.3693   37.0296 H   0  0  0  0  0  0  0  0  0  0  0  0
   -0.1316   -8.3390   38.1866 H   0  0  0  0  0  0  0  0  0  0  0  0
    3.1091   -6.9150   38.9128 H   0  0  0  0  0  0  0  0  0  0  0  0
    1.3606   -5.8998   40.2991 H   0  0  0  0  0  0  0  0  0  0  0  0
    1.2516   -5.3244   38.6507 H   0  0  0  0  0  0  0  0  0  0  0  0
    0.0821   -6.5038   39.2538 H   0  0  0  0  0  0  0  0  0  0  0  0
    1.0143   -8.7057   39.9323 H   0  0  0  0  0  0  0  0  0  0  0  0
    3.7554   -9.2997   39.1780 H   0  0  0  0  0  0  0  0  0  0  0  0
    2.8636  -10.2659   40.1680 H   0  0  0  0  0  0  0  0  0  0  0  0
    1.5539   -5.9481   34.9399 H   0  0  0  0  0  0  0  0  0  0  0  0
    1.5471   -5.2586   36.6274 H   0  0  0  0  0  0  0  0  0  0  0  0
    1.4686   -3.4500   35.0475 H   0  0  0  0  0  0  0  0  0  0  0  0
    3.0215   -3.4784   35.8828 H   0  0  0  0  0  0  0  0  0  0  0  0
    3.7466   -3.2728   33.8416 H   0  0  0  0  0  0  0  0  0  0  0  0
    3.1239   -6.0326   33.2384 H   0  0  0  0  0  0  0  0  0  0  0  0
    4.6348   -5.1607   32.9958 H   0  0  0  0  0  0  0  0  0  0  0  0
    4.9358   -6.8597   34.7683 H   0  0  0  0  0  0  0  0  0  0  0  0
    5.1010   -5.2560   35.4679 H   0  0  0  0  0  0  0  0  0  0  0  0
  1  2  1  0
  2  3  1  0
  3  4  1  0
  4  5  1  0
  5  6  2  0
  6  7  1  0
  7  8  1  0
  8  9  1  0
  9 10  2  0
 10 11  1  0
 11 12  1  0
 12 13  1  0
 13 14  1  0
 13 15  1  0
 15 16  1  0
 12 17  1  0
 17 18  2  0
 17 19  2  0
 17 20  1  0
 20 21  1  0
 21 22  1  0
 22 23  1  0
 23 24  1  0
 24 25  1  0
 10 26  1  0
 26 27  2  0
  7  3  2  0
 27  8  1  0
 25 20  1  0
  1 28  1  0
  1 29  1  0
  1 30  1  0
  2 31  1  0
  2 32  1  0
  4 33  1  0
  5 34  1  0
  6 35  1  0
  9 36  1  0
 11 37  1  0
 11 38  1  0
 13 39  1  0
 14 40  1  0
 14 41  1  0
 14 42  1  0
 15 43  1  0
 16 44  1  0
 16 45  1  0
 21 46  1  0
 21 47  1  0
 22 48  1  0
 22 49  1  0
 23 50  1  0
 24 51  1  0
 24 52  1  0
 25 53  1  0
 25 54  1  0
M  END
>  <Energy>  (249) 
-51.911851866915931

>  <compound_id>  (249) 
2486

>  <target_id>  (249) 
1

>  <reference_id>  (249) 
167

>  <inspiration_ids>  (249) 
[167, 196]

>  <energy_score>  (249) 
-65.95496822294297

>  <distance_score>  (249) 
2.1083672836310123

>  <path>  (249) 
/opt/xchem-fragalysis-2/maxwin/BulkDock/SCRATCH/505736/C2486-P167/C2486-P167.minimised.mol

>  <scratch_subdir>  (249) 
/opt/xchem-fragalysis-2/maxwin/BulkDock/SCRATCH/505736/C2486-P167

>  <fragmenstein_runtime>  (249) 
16.591530561447144

>  <fragmenstein_outcome>  (249) 
too moved

>  <fragmenstein_mode>  (249) 
expansion

>  <fragmenstein_error>  (249) 


$$$$
C2486-P196
     RDKit          3D

 54 56  0  0  0  0  0  0  0  0999 V2000
   -0.3377   -3.4688   30.8119 C   0  0  0  0  0  0  0  0  0  0  0  0
    0.2686   -4.3993   31.8509 C   0  0  0  0  0  0  0  0  0  0  0  0
   -0.2632   -5.7882   31.7690 C   0  0  0  0  0  0  0  0  0  0  0  0
   -0.1657   -6.4624   30.5719 N   0  0  0  0  0  0  0  0  0  0  0  0
   -0.5792   -7.7514   30.7185 C   0  0  0  0  0  0  0  0  0  0  0  0
   -1.0080   -7.9059   32.0107 C   0  0  0  0  0  0  0  0  0  0  0  0
   -0.7526   -6.6908   32.7023 C   0  0  0  0  0  0  0  0  0  0  0  0
   -0.8848   -6.5744   34.1148 N   0  0  0  0  0  0  0  0  0  0  0  0
   -0.6787   -7.6317   34.9598 C   0  0  0  0  0  0  0  0  0  0  0  0
   -0.3881   -7.1027   36.1822 C   0  0  0  0  0  0  0  0  0  0  0  0
    0.2312   -7.7649   37.3405 C   0  0  0  0  0  0  0  0  0  0  0  0
    1.6700   -7.5936   37.5319 N   0  0  0  0  0  0  0  0  0  0  0  0
    1.9334   -7.2666   38.9314 C   0  0  0  0  0  0  0  0  0  0  0  0
    2.0777   -5.7691   39.1023 C   0  0  0  0  0  0  0  0  0  0  0  0
    3.0394   -8.0084   39.5289 N   0  0  0  0  0  0  0  0  0  0  0  0
    2.6677   -9.4035   39.7140 N   0  0  0  0  0  0  0  0  0  0  0  0
    2.8299   -7.5552   36.3497 S   0  0  0  0  0  0  0  0  0  0  0  0
    2.3803   -8.1837   35.1257 O   0  0  0  0  0  0  0  0  0  0  0  0
    4.0753   -8.0117   36.9334 O   0  0  0  0  0  0  0  0  0  0  0  0
    3.0739   -5.9200   36.0163 N   0  0  0  0  0  0  0  0  0  0  0  0
    1.8675   -5.1293   35.7010 C   0  0  0  0  0  0  0  0  0  0  0  0
    2.1597   -3.7568   35.1108 C   0  0  0  0  0  0  0  0  0  0  0  0
    2.8276   -3.8429   33.8026 N   0  0  0  0  0  0  0  0  0  0  0  0
    3.6023   -5.0850   33.6910 C   0  0  0  0  0  0  0  0  0  0  0  0
    4.1670   -5.6331   35.0286 C   0  0  0  0  0  0  0  0  0  0  0  0
   -0.8003   -5.7967   36.1512 N   0  0  0  0  0  0  0  0  0  0  0  0
   -0.9996   -5.4593   34.8719 N   0  0  0  0  0  0  0  0  0  0  0  0
    0.0546   -2.4549   30.9414 H   0  0  0  0  0  0  0  0  0  0  0  0
   -0.1047   -3.7861   29.7903 H   0  0  0  0  0  0  0  0  0  0  0  0
   -1.4276   -3.4249   30.9112 H   0  0  0  0  0  0  0  0  0  0  0  0
    1.3514   -4.4292   31.6956 H   0  0  0  0  0  0  0  0  0  0  0  0
    0.0815   -3.9815   32.8438 H   0  0  0  0  0  0  0  0  0  0  0  0
    0.1847   -6.0539   29.7136 H   0  0  0  0  0  0  0  0  0  0  0  0
   -0.5105   -8.4514   29.8973 H   0  0  0  0  0  0  0  0  0  0  0  0
   -1.4119   -8.8189   32.4219 H   0  0  0  0  0  0  0  0  0  0  0  0
   -0.5247   -8.6115   34.5850 H   0  0  0  0  0  0  0  0  0  0  0  0
    0.0092   -8.8151   37.3313 H   0  0  0  0  0  0  0  0  0  0  0  0
   -0.3167   -7.3545   38.1967 H   0  0  0  0  0  0  0  0  0  0  0  0
    1.0700   -7.5291   39.5590 H   0  0  0  0  0  0  0  0  0  0  0  0
    2.9512   -5.3687   38.5798 H   0  0  0  0  0  0  0  0  0  0  0  0
    2.2033   -5.5171   40.1624 H   0  0  0  0  0  0  0  0  0  0  0  0
    1.1855   -5.2365   38.7594 H   0  0  0  0  0  0  0  0  0  0  0  0
    3.8412   -7.9142   38.8876 H   0  0  0  0  0  0  0  0  0  0  0  0
    2.2068   -9.7676   38.8700 H   0  0  0  0  0  0  0  0  0  0  0  0
    3.5017   -9.9764   39.8605 H   0  0  0  0  0  0  0  0  0  0  0  0
    1.3356   -5.6817   34.9382 H   0  0  0  0  0  0  0  0  0  0  0  0
    1.3020   -4.9683   36.6138 H   0  0  0  0  0  0  0  0  0  0  0  0
    1.2315   -3.1890   34.9905 H   0  0  0  0  0  0  0  0  0  0  0  0
    2.7991   -3.1926   35.8011 H   0  0  0  0  0  0  0  0  0  0  0  0
    3.4421   -3.0344   33.7067 H   0  0  0  0  0  0  0  0  0  0  0  0
    2.9563   -5.8439   33.2354 H   0  0  0  0  0  0  0  0  0  0  0  0
    4.4310   -4.9137   32.9958 H   0  0  0  0  0  0  0  0  0  0  0  0
    4.7679   -6.5267   34.8309 H   0  0  0  0  0  0  0  0  0  0  0  0
    4.8414   -4.8966   35.4820 H   0  0  0  0  0  0  0  0  0  0  0  0
  1  2  1  0
  2  3  1  0
  3  4  1  0
  4  5  1  0
  5  6  2  0
  6  7  1  0
  7  8  1  0
  8  9  1  0
  9 10  2  0
 10 11  1  0
 11 12  1  0
 12 13  1  0
 13 14  1  0
 13 15  1  0
 15 16  1  0
 12 17  1  0
 17 18  2  0
 17 19  2  0
 17 20  1  0
 20 21  1  0
 21 22  1  0
 22 23  1  0
 23 24  1  0
 24 25  1  0
 10 26  1  0
 26 27  2  0
  7  3  2  0
 27  8  1  0
 25 20  1  0
  1 28  1  0
  1 29  1  0
  1 30  1  0
  2 31  1  0
  2 32  1  0
  4 33  1  0
  5 34  1  0
  6 35  1  0
  9 36  1  0
 11 37  1  0
 11 38  1  0
 13 39  1  0
 14 40  1  0
 14 41  1  0
 14 42  1  0
 15 43  1  0
 16 44  1  0
 16 45  1  0
 21 46  1  0
 21 47  1  0
 22 48  1  0
 22 49  1  0
 23 50  1  0
 24 51  1  0
 24 52  1  0
 25 53  1  0
 25 54  1  0
M  END
>  <Energy>  (250) 
-44.663781967474449

>  <compound_id>  (250) 
2486

>  <target_id>  (250) 
1

>  <reference_id>  (250) 
196

>  <inspiration_ids>  (250) 
[167, 196]

>  <energy_score>  (250) 
-58.706898323501534

>  <distance_score>  (250) 
2.2329125327277612

>  <path>  (250) 
/opt/xchem-fragalysis-2/maxwin/BulkDock/SCRATCH/505736/C2486-P196/C2486-P196.minimised.mol

>  <scratch_subdir>  (250) 
/opt/xchem-fragalysis-2/maxwin/BulkDock/SCRATCH/505736/C2486-P196

>  <fragmenstein_runtime>  (250) 
17.31927800178528

>  <fragmenstein_outcome>  (250) 
too moved

>  <fragmenstein_mode>  (250) 
expansion

>  <fragmenstein_error>  (250) 


$$$$
C2487-P167
     RDKit          3D

 52 55  0  0  0  0  0  0  0  0999 V2000
    0.4039   -2.3757   29.9116 C   0  0  0  0  0  0  0  0  0  0  0  0
    0.2276   -2.1327   31.4180 C   0  0  0  0  0  0  0  0  0  0  0  0
   -1.1165   -1.4555   31.6290 C   0  0  0  0  0  0  0  0  0  0  0  0
   -2.0668   -2.6341   31.6053 C   0  0  0  0  0  0  0  0  0  0  0  0
   -1.2882   -3.8281   31.8329 O   0  0  0  0  0  0  0  0  0  0  0  0
   -0.0048   -3.3757   32.3044 C   0  0  0  0  0  0  0  0  0  0  0  0
    1.0786   -4.4715   32.4233 C   0  0  0  0  0  0  0  0  0  0  0  0
    1.2537   -5.3832   31.2235 C   0  0  0  0  0  0  0  0  0  0  0  0
    0.0289   -6.2548   31.0398 C   0  0  0  0  0  0  0  0  0  0  0  0
    0.3634   -7.4880   30.3665 N   0  0  0  0  0  0  0  0  0  0  0  0
   -0.7181   -8.3442   30.6335 N   0  0  0  0  0  0  0  0  0  0  0  0
   -1.0802   -8.1194   31.9900 N   0  0  0  0  0  0  0  0  0  0  0  0
   -0.6049   -6.7723   32.3132 C   0  0  0  0  0  0  0  0  0  0  0  0
    0.4302   -6.7453   33.4058 C   0  0  0  0  0  0  0  0  0  0  0  0
    0.8216   -5.3293   33.6769 N   0  0  0  0  0  0  0  0  0  0  0  0
    2.0099   -5.1277   34.8668 S   0  0  0  0  0  0  0  0  0  0  0  0
    3.2748   -5.4408   34.2357 O   0  0  0  0  0  0  0  0  0  0  0  0
    1.7989   -3.8455   35.4955 O   0  0  0  0  0  0  0  0  0  0  0  0
    1.6830   -6.3371   35.9520 N   0  0  0  0  0  0  0  0  0  0  0  0
    2.8202   -6.7907   36.8043 C   0  0  0  0  0  0  0  0  0  0  0  0
    2.4045   -7.9178   37.7688 C   0  0  0  0  0  0  0  0  0  0  0  0
    1.3300   -8.7216   37.2030 N   0  0  0  0  0  0  0  0  0  0  0  0
    0.1223   -7.8893   37.0009 C   0  0  0  0  0  0  0  0  0  0  0  0
    0.3988   -6.3991   36.6719 C   0  0  0  0  0  0  0  0  0  0  0  0
    1.4144   -2.7418   29.7077 H   0  0  0  0  0  0  0  0  0  0  0  0
   -0.3071   -3.1034   29.5079 H   0  0  0  0  0  0  0  0  0  0  0  0
    0.2877   -1.4416   29.3509 H   0  0  0  0  0  0  0  0  0  0  0  0
    1.0508   -1.5162   31.7932 H   0  0  0  0  0  0  0  0  0  0  0  0
   -1.1475   -0.9717   32.6133 H   0  0  0  0  0  0  0  0  0  0  0  0
   -1.3716   -0.6929   30.8867 H   0  0  0  0  0  0  0  0  0  0  0  0
   -2.8446   -2.5465   32.3692 H   0  0  0  0  0  0  0  0  0  0  0  0
   -2.5476   -2.7306   30.6310 H   0  0  0  0  0  0  0  0  0  0  0  0
   -0.1681   -3.0178   33.3337 H   0  0  0  0  0  0  0  0  0  0  0  0
    2.0273   -3.9362   32.5604 H   0  0  0  0  0  0  0  0  0  0  0  0
    2.1458   -5.9955   31.3949 H   0  0  0  0  0  0  0  0  0  0  0  0
    1.4654   -4.8313   30.3048 H   0  0  0  0  0  0  0  0  0  0  0  0
   -0.6888   -5.7041   30.4429 H   0  0  0  0  0  0  0  0  0  0  0  0
    0.6074   -7.4030   29.3867 H   0  0  0  0  0  0  0  0  0  0  0  0
   -0.4252   -9.3318   30.4979 H   0  0  0  0  0  0  0  0  0  0  0  0
   -2.0907   -8.1863   32.1371 H   0  0  0  0  0  0  0  0  0  0  0  0
   -1.4415   -6.1568   32.6246 H   0  0  0  0  0  0  0  0  0  0  0  0
    1.3198   -7.3249   33.1601 H   0  0  0  0  0  0  0  0  0  0  0  0
   -0.0288   -7.1955   34.2832 H   0  0  0  0  0  0  0  0  0  0  0  0
    3.6053   -7.1801   36.1453 H   0  0  0  0  0  0  0  0  0  0  0  0
    3.2266   -5.9475   37.3735 H   0  0  0  0  0  0  0  0  0  0  0  0
    2.0867   -7.4922   38.7291 H   0  0  0  0  0  0  0  0  0  0  0  0
    3.2734   -8.5499   37.9825 H   0  0  0  0  0  0  0  0  0  0  0  0
    1.0772   -9.4958   37.8266 H   0  0  0  0  0  0  0  0  0  0  0  0
   -0.4598   -8.3496   36.1959 H   0  0  0  0  0  0  0  0  0  0  0  0
   -0.4915   -7.9331   37.9072 H   0  0  0  0  0  0  0  0  0  0  0  0
   -0.4289   -5.9820   36.0915 H   0  0  0  0  0  0  0  0  0  0  0  0
    0.4758   -5.8154   37.5974 H   0  0  0  0  0  0  0  0  0  0  0  0
  1  2  1  0
  2  3  1  0
  3  4  1  0
  4  5  1  0
  5  6  1  0
  6  7  1  0
  7  8  1  0
  8  9  1  0
  9 10  1  0
 10 11  1  0
 11 12  1  0
 12 13  1  0
 13 14  1  0
 14 15  1  0
 15 16  1  0
 16 17  2  0
 16 18  2  0
 16 19  1  0
 19 20  1  0
 20 21  1  0
 21 22  1  0
 22 23  1  0
 23 24  1  0
  6  2  1  0
 15  7  1  0
 24 19  1  0
 13  9  1  0
  1 25  1  0
  1 26  1  0
  1 27  1  0
  2 28  1  0
  3 29  1  0
  3 30  1  0
  4 31  1  0
  4 32  1  0
  6 33  1  0
  7 34  1  0
  8 35  1  0
  8 36  1  0
  9 37  1  0
 10 38  1  0
 11 39  1  0
 12 40  1  0
 13 41  1  0
 14 42  1  0
 14 43  1  0
 20 44  1  0
 20 45  1  0
 21 46  1  0
 21 47  1  0
 22 48  1  0
 23 49  1  0
 23 50  1  0
 24 51  1  0
 24 52  1  0
M  END
>  <Energy>  (251) 
-4.5943656557138182

>  <compound_id>  (251) 
2487

>  <target_id>  (251) 
1

>  <reference_id>  (251) 
167

>  <inspiration_ids>  (251) 
[167, 197]

>  <energy_score>  (251) 
-68.81848491624326

>  <distance_score>  (251) 
2.6421053258986924

>  <path>  (251) 
/opt/xchem-fragalysis-2/maxwin/BulkDock/SCRATCH/505736/C2487-P167/C2487-P167.minimised.mol

>  <scratch_subdir>  (251) 
/opt/xchem-fragalysis-2/maxwin/BulkDock/SCRATCH/505736/C2487-P167

>  <fragmenstein_runtime>  (251) 
7.475996494293213

>  <fragmenstein_outcome>  (251) 
too moved

>  <fragmenstein_mode>  (251) 
expansion

>  <fragmenstein_error>  (251) 


$$$$
C2487-P197
     RDKit          3D

 52 55  0  0  0  0  0  0  0  0999 V2000
   -0.8441   -2.7845   29.7715 C   0  0  0  0  0  0  0  0  0  0  0  0
    0.1989   -2.1792   30.7133 C   0  0  0  0  0  0  0  0  0  0  0  0
   -0.2566   -0.7984   31.1440 C   0  0  0  0  0  0  0  0  0  0  0  0
   -1.1239   -1.0893   32.3462 C   0  0  0  0  0  0  0  0  0  0  0  0
   -0.7130   -2.3486   32.8688 O   0  0  0  0  0  0  0  0  0  0  0  0
    0.3912   -2.8348   32.1013 C   0  0  0  0  0  0  0  0  0  0  0  0
    0.4504   -4.3565   32.1879 C   0  0  0  0  0  0  0  0  0  0  0  0
   -0.9276   -5.0329   32.2266 C   0  0  0  0  0  0  0  0  0  0  0  0
   -0.8603   -6.4888   32.7356 C   0  0  0  0  0  0  0  0  0  0  0  0
   -1.6405   -7.4377   31.9563 N   0  0  0  0  0  0  0  0  0  0  0  0
   -0.8855   -7.7513   30.8114 N   0  0  0  0  0  0  0  0  0  0  0  0
    0.4485   -7.3815   31.0641 N   0  0  0  0  0  0  0  0  0  0  0  0
    0.4794   -7.1293   32.5162 C   0  0  0  0  0  0  0  0  0  0  0  0
    1.6531   -6.2920   32.9769 C   0  0  0  0  0  0  0  0  0  0  0  0
    1.1514   -4.9668   33.3393 N   0  0  0  0  0  0  0  0  0  0  0  0
    1.8671   -4.1972   34.6309 S   0  0  0  0  0  0  0  0  0  0  0  0
    3.2626   -4.0401   34.2942 O   0  0  0  0  0  0  0  0  0  0  0  0
    1.0591   -3.0943   35.0801 O   0  0  0  0  0  0  0  0  0  0  0  0
    1.7144   -5.4288   35.7483 N   0  0  0  0  0  0  0  0  0  0  0  0
    2.8388   -5.7541   36.6544 C   0  0  0  0  0  0  0  0  0  0  0  0
    2.5073   -6.9575   37.5634 C   0  0  0  0  0  0  0  0  0  0  0  0
    1.6516   -7.9420   36.8974 N   0  0  0  0  0  0  0  0  0  0  0  0
    0.3772   -7.3237   36.4771 C   0  0  0  0  0  0  0  0  0  0  0  0
    0.3995   -5.7931   36.2797 C   0  0  0  0  0  0  0  0  0  0  0  0
   -0.5296   -3.7776   29.4360 H   0  0  0  0  0  0  0  0  0  0  0  0
   -1.8259   -2.8746   30.2458 H   0  0  0  0  0  0  0  0  0  0  0  0
   -0.9624   -2.1625   28.8774 H   0  0  0  0  0  0  0  0  0  0  0  0
    1.1546   -2.1347   30.1788 H   0  0  0  0  0  0  0  0  0  0  0  0
    0.6130   -0.2067   31.4568 H   0  0  0  0  0  0  0  0  0  0  0  0
   -0.7798   -0.2237   30.3737 H   0  0  0  0  0  0  0  0  0  0  0  0
   -1.0286   -0.3200   33.1183 H   0  0  0  0  0  0  0  0  0  0  0  0
   -2.1806   -1.1660   32.0698 H   0  0  0  0  0  0  0  0  0  0  0  0
    1.3068   -2.4066   32.5295 H   0  0  0  0  0  0  0  0  0  0  0  0
    0.9956   -4.6561   31.2842 H   0  0  0  0  0  0  0  0  0  0  0  0
   -1.3707   -4.9706   31.2365 H   0  0  0  0  0  0  0  0  0  0  0  0
   -1.5962   -4.4928   32.8988 H   0  0  0  0  0  0  0  0  0  0  0  0
   -1.1704   -6.5396   33.7831 H   0  0  0  0  0  0  0  0  0  0  0  0
   -2.5870   -7.1328   31.7853 H   0  0  0  0  0  0  0  0  0  0  0  0
   -1.2475   -7.3955   29.9211 H   0  0  0  0  0  0  0  0  0  0  0  0
    0.7171   -6.5491   30.5446 H   0  0  0  0  0  0  0  0  0  0  0  0
    0.4993   -8.0683   33.0606 H   0  0  0  0  0  0  0  0  0  0  0  0
    2.4138   -6.1786   32.1998 H   0  0  0  0  0  0  0  0  0  0  0  0
    2.1495   -6.8002   33.8073 H   0  0  0  0  0  0  0  0  0  0  0  0
    3.7082   -6.0159   36.0401 H   0  0  0  0  0  0  0  0  0  0  0  0
    3.0915   -4.8836   37.2688 H   0  0  0  0  0  0  0  0  0  0  0  0
    2.0115   -6.6038   38.4767 H   0  0  0  0  0  0  0  0  0  0  0  0
    3.4400   -7.4352   37.8829 H   0  0  0  0  0  0  0  0  0  0  0  0
    1.4406   -8.6949   37.5621 H   0  0  0  0  0  0  0  0  0  0  0  0
    0.0677   -7.8107   35.5470 H   0  0  0  0  0  0  0  0  0  0  0  0
   -0.3874   -7.5508   37.2217 H   0  0  0  0  0  0  0  0  0  0  0  0
   -0.4142   -5.4916   35.6156 H   0  0  0  0  0  0  0  0  0  0  0  0
    0.2432   -5.2815   37.2372 H   0  0  0  0  0  0  0  0  0  0  0  0
  1  2  1  0
  2  3  1  0
  3  4  1  0
  4  5  1  0
  5  6  1  0
  6  7  1  0
  7  8  1  0
  8  9  1  0
  9 10  1  0
 10 11  1  0
 11 12  1  0
 12 13  1  0
 13 14  1  0
 14 15  1  0
 15 16  1  0
 16 17  2  0
 16 18  2  0
 16 19  1  0
 19 20  1  0
 20 21  1  0
 21 22  1  0
 22 23  1  0
 23 24  1  0
  6  2  1  0
 15  7  1  0
 24 19  1  0
 13  9  1  0
  1 25  1  0
  1 26  1  0
  1 27  1  0
  2 28  1  0
  3 29  1  0
  3 30  1  0
  4 31  1  0
  4 32  1  0
  6 33  1  0
  7 34  1  0
  8 35  1  0
  8 36  1  0
  9 37  1  0
 10 38  1  0
 11 39  1  0
 12 40  1  0
 13 41  1  0
 14 42  1  0
 14 43  1  0
 20 44  1  0
 20 45  1  0
 21 46  1  0
 21 47  1  0
 22 48  1  0
 23 49  1  0
 23 50  1  0
 24 51  1  0
 24 52  1  0
M  END
>  <Energy>  (252) 
9.9979013588552661

>  <compound_id>  (252) 
2487

>  <target_id>  (252) 
1

>  <reference_id>  (252) 
197

>  <inspiration_ids>  (252) 
[167, 197]

>  <energy_score>  (252) 
-54.22621790167128

>  <distance_score>  (252) 
2.864850087175338

>  <path>  (252) 
/opt/xchem-fragalysis-2/maxwin/BulkDock/SCRATCH/505736/C2487-P197/C2487-P197.minimised.mol

>  <scratch_subdir>  (252) 
/opt/xchem-fragalysis-2/maxwin/BulkDock/SCRATCH/505736/C2487-P197

>  <fragmenstein_runtime>  (252) 
7.134731292724609

>  <fragmenstein_outcome>  (252) 
too moved

>  <fragmenstein_mode>  (252) 
expansion

>  <fragmenstein_error>  (252) 


$$$$
C2489-P167
     RDKit          3D

 75 78  0  0  0  0  0  0  0  0999 V2000
    4.2714   -3.1315   31.3559 C   0  0  0  0  0  0  0  0  0  0  0  0
    2.7606   -3.1576   31.5434 C   0  0  0  0  0  0  0  0  0  0  0  0
    2.0637   -3.8103   30.3573 C   0  0  0  0  0  0  0  0  0  0  0  0
    0.6002   -4.2677   30.5292 C   0  0  0  0  0  0  0  0  0  0  0  0
   -0.4387   -3.1181   30.4848 C   0  0  0  0  0  0  0  0  0  0  0  0
   -0.3533   -1.8940   31.4255 C   0  0  0  0  0  0  0  0  0  0  0  0
    0.0051   -2.1418   32.8029 N   0  0  0  0  0  0  0  0  0  0  0  0
    0.8045   -1.2778   33.8020 C   0  0  0  0  0  0  0  0  0  0  0  0
    1.3643   -0.2665   33.6470 O   0  0  0  0  0  0  0  0  0  0  0  0
    0.7194   -1.8442   35.1743 C   0  0  0  0  0  0  0  0  0  0  0  0
   -0.2867   -2.6683   35.7567 C   0  0  0  0  0  0  0  0  0  0  0  0
    0.1345   -2.8827   37.0451 C   0  0  0  0  0  0  0  0  0  0  0  0
   -0.3880   -3.6525   38.1865 C   0  0  0  0  0  0  0  0  0  0  0  0
    1.2935   -2.2091   37.2505 O   0  0  0  0  0  0  0  0  0  0  0  0
    1.6544   -1.5469   36.0967 N   0  0  0  0  0  0  0  0  0  0  0  0
   -1.7620   -1.2629   31.5174 C   0  0  0  0  0  0  0  0  0  0  0  0
   -2.2624   -0.5455   30.6639 O   0  0  0  0  0  0  0  0  0  0  0  0
   -2.4123   -1.6978   32.6444 O   0  0  0  0  0  0  0  0  0  0  0  0
   -3.7396   -1.2318   32.8563 C   0  0  0  0  0  0  0  0  0  0  0  0
    0.2306   -5.3765   31.5713 C   0  0  0  0  0  0  0  0  0  0  0  0
    1.3448   -6.3979   31.8590 C   0  0  0  0  0  0  0  0  0  0  0  0
    1.3281   -7.0154   33.2578 N   0  0  0  0  0  0  0  0  0  0  0  0
    2.1991   -6.1061   34.4118 S   0  0  0  0  0  0  0  0  0  0  0  0
    1.5981   -4.7973   34.4825 O   0  0  0  0  0  0  0  0  0  0  0  0
    3.6025   -6.2556   34.1273 O   0  0  0  0  0  0  0  0  0  0  0  0
    1.8794   -6.8499   35.8604 N   0  0  0  0  0  0  0  0  0  0  0  0
    1.8474   -8.3040   36.0135 C   0  0  0  0  0  0  0  0  0  0  0  0
    0.8743   -8.6370   37.1688 C   0  0  0  0  0  0  0  0  0  0  0  0
    0.8956   -7.5508   38.2192 C   0  0  0  0  0  0  0  0  0  0  0  0
    0.5377   -7.9441   39.5738 N   0  0  0  0  0  0  0  0  0  0  0  0
    1.6060   -7.4595   40.4098 N   0  0  0  0  0  0  0  0  0  0  0  0
    2.3679   -6.5079   39.6310 N   0  0  0  0  0  0  0  0  0  0  0  0
    2.3305   -7.0691   38.2972 C   0  0  0  0  0  0  0  0  0  0  0  0
    2.5623   -6.2025   37.0479 C   0  0  0  0  0  0  0  0  0  0  0  0
   -0.0716   -7.3261   33.5812 C   0  0  0  0  0  0  0  0  0  0  0  0
   -0.8711   -6.0488   33.6078 C   0  0  0  0  0  0  0  0  0  0  0  0
   -0.3746   -4.9008   32.8100 N   0  0  0  0  0  0  0  0  0  0  0  0
    4.6760   -4.1468   31.2911 H   0  0  0  0  0  0  0  0  0  0  0  0
    4.7489   -2.6308   32.2041 H   0  0  0  0  0  0  0  0  0  0  0  0
    4.5446   -2.5919   30.4436 H   0  0  0  0  0  0  0  0  0  0  0  0
    2.5352   -3.6842   32.4690 H   0  0  0  0  0  0  0  0  0  0  0  0
    2.4233   -2.1245   31.6496 H   0  0  0  0  0  0  0  0  0  0  0  0
    2.1076   -3.1101   29.5114 H   0  0  0  0  0  0  0  0  0  0  0  0
    2.6519   -4.6760   30.0255 H   0  0  0  0  0  0  0  0  0  0  0  0
    0.4181   -4.7877   29.5727 H   0  0  0  0  0  0  0  0  0  0  0  0
   -0.4417   -2.7169   29.4602 H   0  0  0  0  0  0  0  0  0  0  0  0
   -1.4338   -3.5698   30.5899 H   0  0  0  0  0  0  0  0  0  0  0  0
    0.3314   -1.1326   31.0388 H   0  0  0  0  0  0  0  0  0  0  0  0
   -0.4213   -2.9210   33.2941 H   0  0  0  0  0  0  0  0  0  0  0  0
   -1.1829   -3.0588   35.2994 H   0  0  0  0  0  0  0  0  0  0  0  0
    0.4163   -3.9522   38.8652 H   0  0  0  0  0  0  0  0  0  0  0  0
   -1.1090   -3.0540   38.7512 H   0  0  0  0  0  0  0  0  0  0  0  0
   -0.8917   -4.5593   37.8406 H   0  0  0  0  0  0  0  0  0  0  0  0
   -3.9214   -1.2101   33.9345 H   0  0  0  0  0  0  0  0  0  0  0  0
   -4.4433   -1.9352   32.4046 H   0  0  0  0  0  0  0  0  0  0  0  0
   -3.8891   -0.2238   32.4681 H   0  0  0  0  0  0  0  0  0  0  0  0
   -0.5755   -5.9388   31.0753 H   0  0  0  0  0  0  0  0  0  0  0  0
    1.1355   -7.2066   31.1594 H   0  0  0  0  0  0  0  0  0  0  0  0
    2.3414   -6.0055   31.6731 H   0  0  0  0  0  0  0  0  0  0  0  0
    2.8552   -8.6809   36.2288 H   0  0  0  0  0  0  0  0  0  0  0  0
    1.5418   -8.8212   35.1113 H   0  0  0  0  0  0  0  0  0  0  0  0
    1.1966   -9.5709   37.6270 H   0  0  0  0  0  0  0  0  0  0  0  0
   -0.1462   -8.7699   36.7945 H   0  0  0  0  0  0  0  0  0  0  0  0
    0.2128   -6.7404   37.9296 H   0  0  0  0  0  0  0  0  0  0  0  0
    0.3803   -8.9545   39.6463 H   0  0  0  0  0  0  0  0  0  0  0  0
    2.1846   -8.2329   40.7657 H   0  0  0  0  0  0  0  0  0  0  0  0
    3.3219   -6.3954   39.9753 H   0  0  0  0  0  0  0  0  0  0  0  0
    3.0419   -7.9095   38.2859 H   0  0  0  0  0  0  0  0  0  0  0  0
    2.1305   -5.2069   37.1938 H   0  0  0  0  0  0  0  0  0  0  0  0
    3.6374   -6.0923   36.8695 H   0  0  0  0  0  0  0  0  0  0  0  0
   -0.4569   -7.9983   32.8022 H   0  0  0  0  0  0  0  0  0  0  0  0
   -0.2041   -7.8711   34.5137 H   0  0  0  0  0  0  0  0  0  0  0  0
   -0.9900   -5.7278   34.6482 H   0  0  0  0  0  0  0  0  0  0  0  0
   -1.8267   -6.3592   33.2172 H   0  0  0  0  0  0  0  0  0  0  0  0
    0.4068   -4.5275   33.3759 H   0  0  0  0  0  0  0  0  0  0  0  0
  1  2  1  0
  2  3  1  0
  3  4  1  0
  4  5  1  0
  5  6  1  0
  6  7  1  0
  7  8  1  0
  8  9  2  0
  8 10  1  0
 10 11  1  0
 11 12  2  0
 12 13  1  0
 12 14  1  0
 14 15  1  0
  6 16  1  0
 16 17  2  0
 16 18  1  0
 18 19  1  0
  4 20  1  0
 20 21  1  0
 21 22  1  0
 22 23  1  0
 23 24  2  0
 23 25  2  0
 23 26  1  0
 26 27  1  0
 27 28  1  0
 28 29  1  0
 29 30  1  0
 30 31  1  0
 31 32  1  0
 32 33  1  0
 33 34  1  0
 22 35  1  0
 35 36  1  0
 36 37  1  0
 15 10  2  0
 37 20  1  0
 34 26  1  0
 33 29  1  0
  1 38  1  0
  1 39  1  0
  1 40  1  0
  2 41  1  0
  2 42  1  0
  3 43  1  0
  3 44  1  0
  4 45  1  0
  5 46  1  0
  5 47  1  0
  6 48  1  0
  7 49  1  0
 11 50  1  0
 13 51  1  0
 13 52  1  0
 13 53  1  0
 19 54  1  0
 19 55  1  0
 19 56  1  0
 20 57  1  0
 21 58  1  0
 21 59  1  0
 27 60  1  0
 27 61  1  0
 28 62  1  0
 28 63  1  0
 29 64  1  0
 30 65  1  0
 31 66  1  0
 32 67  1  0
 33 68  1  0
 34 69  1  0
 34 70  1  0
 35 71  1  0
 35 72  1  0
 36 73  1  0
 36 74  1  0
 37 75  1  0
M  END
>  <Energy>  (253) 
45.023422466969407

>  <compound_id>  (253) 
2489

>  <target_id>  (253) 
1

>  <reference_id>  (253) 
167

>  <inspiration_ids>  (253) 
[167, 199]

>  <energy_score>  (253) 
-50.2327119282221

>  <distance_score>  (253) 
2.2077157124312623

>  <path>  (253) 
/opt/xchem-fragalysis-2/maxwin/BulkDock/SCRATCH/505736/C2489-P167/C2489-P167.minimised.mol

>  <scratch_subdir>  (253) 
/opt/xchem-fragalysis-2/maxwin/BulkDock/SCRATCH/505736/C2489-P167

>  <fragmenstein_runtime>  (253) 
11.272392272949219

>  <fragmenstein_outcome>  (253) 
too moved

>  <fragmenstein_mode>  (253) 
expansion

>  <fragmenstein_error>  (253) 


$$$$
C2489-P199
     RDKit          3D

 75 78  0  0  0  0  0  0  0  0999 V2000
    4.2275   -4.7305   28.5999 C   0  0  0  0  0  0  0  0  0  0  0  0
    3.2274   -4.1263   29.5750 C   0  0  0  0  0  0  0  0  0  0  0  0
    1.8070   -4.6277   29.2905 C   0  0  0  0  0  0  0  0  0  0  0  0
    0.7388   -4.2439   30.3581 C   0  0  0  0  0  0  0  0  0  0  0  0
    0.8031   -2.7178   30.6315 C   0  0  0  0  0  0  0  0  0  0  0  0
   -0.4239   -1.9407   31.1695 C   0  0  0  0  0  0  0  0  0  0  0  0
   -0.1762   -1.3749   32.4915 N   0  0  0  0  0  0  0  0  0  0  0  0
   -0.0039   -0.0177   32.9145 C   0  0  0  0  0  0  0  0  0  0  0  0
    0.0597    0.9933   32.2820 O   0  0  0  0  0  0  0  0  0  0  0  0
    0.0866    0.0637   34.3860 C   0  0  0  0  0  0  0  0  0  0  0  0
    0.8674   -0.7290   35.2650 C   0  0  0  0  0  0  0  0  0  0  0  0
    0.5525   -0.2703   36.5183 C   0  0  0  0  0  0  0  0  0  0  0  0
    0.9673   -0.6408   37.8816 C   0  0  0  0  0  0  0  0  0  0  0  0
   -0.3394    0.7484   36.4094 O   0  0  0  0  0  0  0  0  0  0  0  0
   -0.6288    0.9689   35.0749 N   0  0  0  0  0  0  0  0  0  0  0  0
   -1.7807   -2.6623   31.1747 C   0  0  0  0  0  0  0  0  0  0  0  0
   -1.9537   -3.7722   31.6688 O   0  0  0  0  0  0  0  0  0  0  0  0
   -2.8377   -2.0006   30.6506 O   0  0  0  0  0  0  0  0  0  0  0  0
   -2.9098   -0.5804   30.7711 C   0  0  0  0  0  0  0  0  0  0  0  0
    0.8606   -5.2284   31.5763 C   0  0  0  0  0  0  0  0  0  0  0  0
    0.8599   -4.5503   32.9503 C   0  0  0  0  0  0  0  0  0  0  0  0
    0.9349   -5.5315   34.0876 N   0  0  0  0  0  0  0  0  0  0  0  0
    0.9679   -4.6591   35.5488 S   0  0  0  0  0  0  0  0  0  0  0  0
   -0.2669   -3.9182   35.6420 O   0  0  0  0  0  0  0  0  0  0  0  0
    2.2359   -3.9696   35.6231 O   0  0  0  0  0  0  0  0  0  0  0  0
    0.9626   -5.8794   36.6948 N   0  0  0  0  0  0  0  0  0  0  0  0
    0.3218   -5.5032   37.9874 C   0  0  0  0  0  0  0  0  0  0  0  0
    0.9367   -6.2190   39.1850 C   0  0  0  0  0  0  0  0  0  0  0  0
    1.1343   -7.6949   38.8788 C   0  0  0  0  0  0  0  0  0  0  0  0
    1.8829   -8.3846   39.9410 N   0  0  0  0  0  0  0  0  0  0  0  0
    2.7310   -9.3019   39.2458 N   0  0  0  0  0  0  0  0  0  0  0  0
    3.1566   -8.6308   38.0516 N   0  0  0  0  0  0  0  0  0  0  0  0
    1.9422   -7.9301   37.6007 C   0  0  0  0  0  0  0  0  0  0  0  0
    2.2233   -6.6437   36.8245 C   0  0  0  0  0  0  0  0  0  0  0  0
   -0.2222   -6.4782   33.9752 C   0  0  0  0  0  0  0  0  0  0  0  0
   -0.2224   -7.1673   32.6031 C   0  0  0  0  0  0  0  0  0  0  0  0
   -0.1826   -6.2696   31.4421 N   0  0  0  0  0  0  0  0  0  0  0  0
    4.2478   -5.8219   28.6819 H   0  0  0  0  0  0  0  0  0  0  0  0
    5.2343   -4.3557   28.8091 H   0  0  0  0  0  0  0  0  0  0  0  0
    3.9744   -4.4685   27.5675 H   0  0  0  0  0  0  0  0  0  0  0  0
    3.5265   -4.3664   30.5995 H   0  0  0  0  0  0  0  0  0  0  0  0
    3.2697   -3.0359   29.4785 H   0  0  0  0  0  0  0  0  0  0  0  0
    1.4924   -4.2161   28.3234 H   0  0  0  0  0  0  0  0  0  0  0  0
    1.8237   -5.7177   29.1757 H   0  0  0  0  0  0  0  0  0  0  0  0
   -0.2226   -4.4288   29.8589 H   0  0  0  0  0  0  0  0  0  0  0  0
    1.6847   -2.4846   31.2419 H   0  0  0  0  0  0  0  0  0  0  0  0
    1.0167   -2.2469   29.6594 H   0  0  0  0  0  0  0  0  0  0  0  0
   -0.5087   -1.0757   30.5017 H   0  0  0  0  0  0  0  0  0  0  0  0
   -0.2689   -1.9682   33.3124 H   0  0  0  0  0  0  0  0  0  0  0  0
    1.5609   -1.5173   35.0180 H   0  0  0  0  0  0  0  0  0  0  0  0
    1.4866    0.1924   38.3645 H   0  0  0  0  0  0  0  0  0  0  0  0
    1.6434   -1.5015   37.8659 H   0  0  0  0  0  0  0  0  0  0  0  0
    0.0966   -0.9053   38.4895 H   0  0  0  0  0  0  0  0  0  0  0  0
   -2.4074   -0.2119   31.6656 H   0  0  0  0  0  0  0  0  0  0  0  0
   -3.9612   -0.3224   30.8879 H   0  0  0  0  0  0  0  0  0  0  0  0
   -2.5162   -0.1091   29.8676 H   0  0  0  0  0  0  0  0  0  0  0  0
    1.8167   -5.7552   31.5077 H   0  0  0  0  0  0  0  0  0  0  0  0
    1.7259   -3.8826   33.0157 H   0  0  0  0  0  0  0  0  0  0  0  0
   -0.0521   -3.9712   33.0773 H   0  0  0  0  0  0  0  0  0  0  0  0
   -0.7414   -5.7589   37.9131 H   0  0  0  0  0  0  0  0  0  0  0  0
    0.3943   -4.4236   38.1626 H   0  0  0  0  0  0  0  0  0  0  0  0
    1.8968   -5.7461   39.4323 H   0  0  0  0  0  0  0  0  0  0  0  0
    0.2939   -6.0891   40.0639 H   0  0  0  0  0  0  0  0  0  0  0  0
    0.1571   -8.1827   38.7848 H   0  0  0  0  0  0  0  0  0  0  0  0
    2.4539   -7.7244   40.4699 H   0  0  0  0  0  0  0  0  0  0  0  0
    2.1916  -10.1532   39.0052 H   0  0  0  0  0  0  0  0  0  0  0  0
    3.8787   -7.9535   38.3037 H   0  0  0  0  0  0  0  0  0  0  0  0
    1.3681   -8.5955   36.9501 H   0  0  0  0  0  0  0  0  0  0  0  0
    2.9781   -6.0280   37.3294 H   0  0  0  0  0  0  0  0  0  0  0  0
    2.6189   -6.9068   35.8366 H   0  0  0  0  0  0  0  0  0  0  0  0
   -1.1583   -5.9439   34.1135 H   0  0  0  0  0  0  0  0  0  0  0  0
   -0.1438   -7.2512   34.7465 H   0  0  0  0  0  0  0  0  0  0  0  0
    0.6445   -7.8202   32.5550 H   0  0  0  0  0  0  0  0  0  0  0  0
   -1.1079   -7.8072   32.5217 H   0  0  0  0  0  0  0  0  0  0  0  0
   -0.0308   -6.8086   30.5920 H   0  0  0  0  0  0  0  0  0  0  0  0
  1  2  1  0
  2  3  1  0
  3  4  1  0
  4  5  1  0
  5  6  1  0
  6  7  1  0
  7  8  1  0
  8  9  2  0
  8 10  1  0
 10 11  1  0
 11 12  2  0
 12 13  1  0
 12 14  1  0
 14 15  1  0
  6 16  1  0
 16 17  2  0
 16 18  1  0
 18 19  1  0
  4 20  1  0
 20 21  1  0
 21 22  1  0
 22 23  1  0
 23 24  2  0
 23 25  2  0
 23 26  1  0
 26 27  1  0
 27 28  1  0
 28 29  1  0
 29 30  1  0
 30 31  1  0
 31 32  1  0
 32 33  1  0
 33 34  1  0
 22 35  1  0
 35 36  1  0
 36 37  1  0
 15 10  2  0
 37 20  1  0
 34 26  1  0
 33 29  1  0
  1 38  1  0
  1 39  1  0
  1 40  1  0
  2 41  1  0
  2 42  1  0
  3 43  1  0
  3 44  1  0
  4 45  1  0
  5 46  1  0
  5 47  1  0
  6 48  1  0
  7 49  1  0
 11 50  1  0
 13 51  1  0
 13 52  1  0
 13 53  1  0
 19 54  1  0
 19 55  1  0
 19 56  1  0
 20 57  1  0
 21 58  1  0
 21 59  1  0
 27 60  1  0
 27 61  1  0
 28 62  1  0
 28 63  1  0
 29 64  1  0
 30 65  1  0
 31 66  1  0
 32 67  1  0
 33 68  1  0
 34 69  1  0
 34 70  1  0
 35 71  1  0
 35 72  1  0
 36 73  1  0
 36 74  1  0
 37 75  1  0
M  END
>  <Energy>  (254) 
21.996836501293259

>  <compound_id>  (254) 
2489

>  <target_id>  (254) 
1

>  <reference_id>  (254) 
199

>  <inspiration_ids>  (254) 
[167, 199]

>  <energy_score>  (254) 
-95.96221368129054

>  <distance_score>  (254) 
2.274680361026232

>  <path>  (254) 
/opt/xchem-fragalysis-2/maxwin/BulkDock/SCRATCH/505736/C2489-P199/C2489-P199.minimised.mol

>  <scratch_subdir>  (254) 
/opt/xchem-fragalysis-2/maxwin/BulkDock/SCRATCH/505736/C2489-P199

>  <fragmenstein_runtime>  (254) 
16.15334987640381

>  <fragmenstein_outcome>  (254) 
too moved

>  <fragmenstein_mode>  (254) 
expansion

>  <fragmenstein_error>  (254) 


$$$$
C2485-P167
     RDKit          2D

  0  0  0  0  0  0  0  0  0  0999 V2000
M  END
>  <compound_id>  (255) 
2485

>  <target_id>  (255) 
1

>  <reference_id>  (255) 
167

>  <inspiration_ids>  (255) 
[167, 202]

>  <energy_score>  (255) 
nan

>  <distance_score>  (255) 
nan

>  <path>  (255) 
/opt/xchem-fragalysis-2/maxwin/BulkDock/SCRATCH/505736/C2485-P167/C2485-P167.minimised.mol

>  <scratch_subdir>  (255) 
/opt/xchem-fragalysis-2/maxwin/BulkDock/SCRATCH/505736/C2485-P167

>  <fragmenstein_runtime>  (255) 
0.7158770561218262

>  <fragmenstein_outcome>  (255) 
too distant

>  <fragmenstein_mode>  (255) 
expansion

>  <fragmenstein_error>  (255) 
DistanceError: hit0

$$$$
C2492-P168
     RDKit          3D

 50 53  0  0  0  0  0  0  0  0999 V2000
    2.0769   -6.8260   36.9877 O   0  0  0  0  0  0  0  0  0  0  0  0
    0.7095   -6.5300   36.6335 S   0  0  0  0  0  0  0  0  0  0  0  0
   -0.3674   -7.4560   36.8702 O   0  0  0  0  0  0  0  0  0  0  0  0
    0.2883   -5.0279   37.2311 N   0  0  0  0  0  0  0  0  0  0  0  0
    1.3004   -4.2779   38.0242 C   0  0  0  0  0  0  0  0  0  0  0  0
    0.6562   -3.2541   38.9844 C   0  0  0  0  0  0  0  0  0  0  0  0
   -0.4127   -2.4621   38.3658 N   0  0  0  0  0  0  0  0  0  0  0  0
   -1.4395   -3.3261   37.7620 C   0  0  0  0  0  0  0  0  0  0  0  0
   -1.1044   -4.8294   37.6829 C   0  0  0  0  0  0  0  0  0  0  0  0
    0.7226   -6.2072   34.9902 N   0  0  0  0  0  0  0  0  0  0  0  0
    1.8034   -5.2895   34.5259 C   0  0  0  0  0  0  0  0  0  0  0  0
    2.1281   -5.6356   33.0710 C   0  0  0  0  0  0  0  0  0  0  0  0
    0.8808   -5.5290   32.3024 C   0  0  0  0  0  0  0  0  0  0  0  0
    0.7934   -5.0545   31.0618 N   0  0  0  0  0  0  0  0  0  0  0  0
   -0.4837   -4.6284   31.0644 N   0  0  0  0  0  0  0  0  0  0  0  0
   -0.9419   -3.5976   30.1493 C   0  0  0  0  0  0  0  0  0  0  0  0
    0.0480   -2.4820   29.8623 C   0  0  0  0  0  0  0  0  0  0  0  0
   -0.5682   -1.4453   28.9201 C   0  0  0  0  0  0  0  0  0  0  0  0
    0.3458   -0.3292   28.5568 C   0  0  0  0  0  0  0  0  0  0  0  0
    1.6799   -0.3886   28.9026 N   0  0  0  0  0  0  0  0  0  0  0  0
    2.2117    0.7308   28.4727 C   0  0  0  0  0  0  0  0  0  0  0  0
    1.2856    1.5225   27.8736 N   0  0  0  0  0  0  0  0  0  0  0  0
    0.0963    0.8616   27.9101 C   0  0  0  0  0  0  0  0  0  0  0  0
   -1.5820    1.6862   27.1077 I   0  0  0  0  0  0  0  0  0  0  0  0
   -1.2954   -5.1277   32.0443 N   0  0  0  0  0  0  0  0  0  0  0  0
   -0.3908   -5.6453   32.8896 C   0  0  0  0  0  0  0  0  0  0  0  0
   -0.6048   -5.9878   34.3346 C   0  0  0  0  0  0  0  0  0  0  0  0
    1.9097   -4.9601   38.6258 H   0  0  0  0  0  0  0  0  0  0  0  0
    1.9569   -3.7546   37.3198 H   0  0  0  0  0  0  0  0  0  0  0  0
    0.2552   -3.7758   39.8630 H   0  0  0  0  0  0  0  0  0  0  0  0
    1.4342   -2.5770   39.3543 H   0  0  0  0  0  0  0  0  0  0  0  0
   -0.8378   -1.8528   39.0638 H   0  0  0  0  0  0  0  0  0  0  0  0
   -1.6196   -2.9506   36.7477 H   0  0  0  0  0  0  0  0  0  0  0  0
   -2.3812   -3.2068   38.3104 H   0  0  0  0  0  0  0  0  0  0  0  0
   -1.2389   -5.3015   38.6633 H   0  0  0  0  0  0  0  0  0  0  0  0
   -1.8001   -5.2922   36.9800 H   0  0  0  0  0  0  0  0  0  0  0  0
    1.4776   -4.2465   34.6282 H   0  0  0  0  0  0  0  0  0  0  0  0
    2.7187   -5.4137   35.1123 H   0  0  0  0  0  0  0  0  0  0  0  0
    2.9012   -4.9628   32.6863 H   0  0  0  0  0  0  0  0  0  0  0  0
    2.4983   -6.6567   33.0241 H   0  0  0  0  0  0  0  0  0  0  0  0
   -1.8650   -3.1815   30.5659 H   0  0  0  0  0  0  0  0  0  0  0  0
   -1.1664   -4.1107   29.2109 H   0  0  0  0  0  0  0  0  0  0  0  0
    0.9571   -2.8990   29.4104 H   0  0  0  0  0  0  0  0  0  0  0  0
    0.3555   -2.0040   30.8013 H   0  0  0  0  0  0  0  0  0  0  0  0
   -1.4350   -1.0034   29.4215 H   0  0  0  0  0  0  0  0  0  0  0  0
   -0.9279   -1.9309   28.0086 H   0  0  0  0  0  0  0  0  0  0  0  0
    3.2506    1.0171   28.5694 H   0  0  0  0  0  0  0  0  0  0  0  0
    1.4441    2.4348   27.4705 H   0  0  0  0  0  0  0  0  0  0  0  0
   -1.1021   -5.1453   34.8170 H   0  0  0  0  0  0  0  0  0  0  0  0
   -1.2180   -6.8906   34.4097 H   0  0  0  0  0  0  0  0  0  0  0  0
  1  2  2  0
  2  3  2  0
  2  4  1  0
  4  5  1  0
  5  6  1  0
  6  7  1  0
  7  8  1  0
  8  9  1  0
  2 10  1  0
 10 11  1  0
 11 12  1  0
 12 13  1  0
 13 14  2  0
 14 15  1  0
 15 16  1  0
 16 17  1  0
 17 18  1  0
 18 19  1  0
 19 20  1  0
 20 21  2  0
 21 22  1  0
 22 23  1  0
 23 24  1  0
 15 25  1  0
 25 26  2  0
 26 27  1  0
  9  4  1  0
 27 10  1  0
 26 13  1  0
 23 19  2  0
  5 28  1  0
  5 29  1  0
  6 30  1  0
  6 31  1  0
  7 32  1  0
  8 33  1  0
  8 34  1  0
  9 35  1  0
  9 36  1  0
 11 37  1  0
 11 38  1  0
 12 39  1  0
 12 40  1  0
 16 41  1  0
 16 42  1  0
 17 43  1  0
 17 44  1  0
 18 45  1  0
 18 46  1  0
 21 47  1  0
 22 48  1  0
 27 49  1  0
 27 50  1  0
M  END
>  <Energy>  (256) 
-76.854491392865199

>  <compound_id>  (256) 
2492

>  <target_id>  (256) 
1

>  <reference_id>  (256) 
168

>  <inspiration_ids>  (256) 
[168, 13]

>  <energy_score>  (256) 
-75.26263354429199

>  <distance_score>  (256) 
1.6232280288912786

>  <path>  (256) 
/opt/xchem-fragalysis-2/maxwin/BulkDock/SCRATCH/505736/C2492-P168/C2492-P168.minimised.mol

>  <scratch_subdir>  (256) 
/opt/xchem-fragalysis-2/maxwin/BulkDock/SCRATCH/505736/C2492-P168

>  <fragmenstein_runtime>  (256) 
4.9017393589019775

>  <fragmenstein_outcome>  (256) 
too moved

>  <fragmenstein_mode>  (256) 
expansion

>  <fragmenstein_error>  (256) 


$$$$
C2492-P13
     RDKit          3D

 50 53  0  0  0  0  0  0  0  0999 V2000
    2.1032   -6.7291   37.0037 O   0  0  0  0  0  0  0  0  0  0  0  0
    0.7351   -6.5015   36.6037 S   0  0  0  0  0  0  0  0  0  0  0  0
   -0.3219   -7.4197   36.9434 O   0  0  0  0  0  0  0  0  0  0  0  0
    0.2793   -4.9615   37.0614 N   0  0  0  0  0  0  0  0  0  0  0  0
    1.2924   -3.9843   37.5337 C   0  0  0  0  0  0  0  0  0  0  0  0
    0.8304   -3.2699   38.8192 C   0  0  0  0  0  0  0  0  0  0  0  0
   -0.4521   -2.5575   38.6865 N   0  0  0  0  0  0  0  0  0  0  0  0
   -1.3944   -3.2906   37.8264 C   0  0  0  0  0  0  0  0  0  0  0  0
   -1.0759   -4.7822   37.6288 C   0  0  0  0  0  0  0  0  0  0  0  0
    0.7428   -6.3403   34.9303 N   0  0  0  0  0  0  0  0  0  0  0  0
    1.8254   -5.4735   34.3787 C   0  0  0  0  0  0  0  0  0  0  0  0
    2.0319   -5.7780   32.8915 C   0  0  0  0  0  0  0  0  0  0  0  0
    0.7511   -5.5143   32.2288 C   0  0  0  0  0  0  0  0  0  0  0  0
    0.6093   -4.7769   31.1285 N   0  0  0  0  0  0  0  0  0  0  0  0
   -0.6606   -4.3424   31.2888 N   0  0  0  0  0  0  0  0  0  0  0  0
   -1.0359   -2.9900   30.8785 C   0  0  0  0  0  0  0  0  0  0  0  0
   -1.0850   -2.7971   29.3684 C   0  0  0  0  0  0  0  0  0  0  0  0
    0.1552   -2.1495   28.7630 C   0  0  0  0  0  0  0  0  0  0  0  0
    0.2812   -0.6717   28.9459 C   0  0  0  0  0  0  0  0  0  0  0  0
    1.3002   -0.1887   29.7435 N   0  0  0  0  0  0  0  0  0  0  0  0
    1.2543    1.1197   29.6400 C   0  0  0  0  0  0  0  0  0  0  0  0
    0.2366    1.5184   28.8342 N   0  0  0  0  0  0  0  0  0  0  0  0
   -0.3899    0.3942   28.3859 C   0  0  0  0  0  0  0  0  0  0  0  0
   -1.9477    0.5197   27.0975 I   0  0  0  0  0  0  0  0  0  0  0  0
   -1.4134   -5.0108   32.2125 N   0  0  0  0  0  0  0  0  0  0  0  0
   -0.4755   -5.6929   32.8839 C   0  0  0  0  0  0  0  0  0  0  0  0
   -0.6060   -6.2482   34.2703 C   0  0  0  0  0  0  0  0  0  0  0  0
    2.2567   -4.4590   37.7329 H   0  0  0  0  0  0  0  0  0  0  0  0
    1.4519   -3.2485   36.7371 H   0  0  0  0  0  0  0  0  0  0  0  0
    0.7437   -4.0085   39.6266 H   0  0  0  0  0  0  0  0  0  0  0  0
    1.5949   -2.5495   39.1292 H   0  0  0  0  0  0  0  0  0  0  0  0
   -0.8549   -2.4441   39.6175 H   0  0  0  0  0  0  0  0  0  0  0  0
   -1.3986   -2.7980   36.8462 H   0  0  0  0  0  0  0  0  0  0  0  0
   -2.4054   -3.1809   38.2342 H   0  0  0  0  0  0  0  0  0  0  0  0
   -1.1525   -5.3134   38.5844 H   0  0  0  0  0  0  0  0  0  0  0  0
   -1.8091   -5.1952   36.9351 H   0  0  0  0  0  0  0  0  0  0  0  0
    1.5679   -4.4179   34.5288 H   0  0  0  0  0  0  0  0  0  0  0  0
    2.7738   -5.6682   34.8894 H   0  0  0  0  0  0  0  0  0  0  0  0
    2.8360   -5.1546   32.4869 H   0  0  0  0  0  0  0  0  0  0  0  0
    2.3051   -6.8229   32.7613 H   0  0  0  0  0  0  0  0  0  0  0  0
   -0.3458   -2.2984   31.3736 H   0  0  0  0  0  0  0  0  0  0  0  0
   -2.0361   -2.8143   31.2934 H   0  0  0  0  0  0  0  0  0  0  0  0
   -1.9653   -2.1953   29.1196 H   0  0  0  0  0  0  0  0  0  0  0  0
   -1.2135   -3.7725   28.8900 H   0  0  0  0  0  0  0  0  0  0  0  0
    0.1478   -2.3381   27.6900 H   0  0  0  0  0  0  0  0  0  0  0  0
    1.0566   -2.6441   29.1446 H   0  0  0  0  0  0  0  0  0  0  0  0
    1.9232    1.8177   30.1257 H   0  0  0  0  0  0  0  0  0  0  0  0
   -0.0121    2.4689   28.5953 H   0  0  0  0  0  0  0  0  0  0  0  0
   -1.2613   -5.5914   34.8437 H   0  0  0  0  0  0  0  0  0  0  0  0
   -1.0472   -7.2490   34.2214 H   0  0  0  0  0  0  0  0  0  0  0  0
  1  2  2  0
  2  3  2  0
  2  4  1  0
  4  5  1  0
  5  6  1  0
  6  7  1  0
  7  8  1  0
  8  9  1  0
  2 10  1  0
 10 11  1  0
 11 12  1  0
 12 13  1  0
 13 14  2  0
 14 15  1  0
 15 16  1  0
 16 17  1  0
 17 18  1  0
 18 19  1  0
 19 20  1  0
 20 21  2  0
 21 22  1  0
 22 23  1  0
 23 24  1  0
 15 25  1  0
 25 26  2  0
 26 27  1  0
  9  4  1  0
 27 10  1  0
 26 13  1  0
 23 19  2  0
  5 28  1  0
  5 29  1  0
  6 30  1  0
  6 31  1  0
  7 32  1  0
  8 33  1  0
  8 34  1  0
  9 35  1  0
  9 36  1  0
 11 37  1  0
 11 38  1  0
 12 39  1  0
 12 40  1  0
 16 41  1  0
 16 42  1  0
 17 43  1  0
 17 44  1  0
 18 45  1  0
 18 46  1  0
 21 47  1  0
 22 48  1  0
 27 49  1  0
 27 50  1  0
M  END
>  <Energy>  (257) 
-74.758032028073004

>  <compound_id>  (257) 
2492

>  <target_id>  (257) 
1

>  <reference_id>  (257) 
13

>  <inspiration_ids>  (257) 
[168, 13]

>  <energy_score>  (257) 
-73.16617417949985

>  <distance_score>  (257) 
1.3352562117679811

>  <path>  (257) 
/opt/xchem-fragalysis-2/maxwin/BulkDock/SCRATCH/505736/C2492-P13/C2492-P13.minimised.mol

>  <scratch_subdir>  (257) 
/opt/xchem-fragalysis-2/maxwin/BulkDock/SCRATCH/505736/C2492-P13

>  <fragmenstein_runtime>  (257) 
3.7964227199554443

>  <fragmenstein_outcome>  (257) 
too moved

>  <fragmenstein_mode>  (257) 
expansion

>  <fragmenstein_error>  (257) 


$$$$
C2494-P168
     RDKit          3D

 66 70  0  0  0  0  0  0  0  0999 V2000
    6.0349   -8.4711   24.6338 C   0  0  0  0  0  0  0  0  0  0  0  0
    5.8336   -7.3470   25.5036 N   0  0  0  0  0  0  0  0  0  0  0  0
    4.7488   -7.0902   26.5845 C   0  0  0  0  0  0  0  0  0  0  0  0
    3.8082   -7.7202   26.8787 O   0  0  0  0  0  0  0  0  0  0  0  0
    5.1174   -5.7452   27.2506 C   0  0  0  0  0  0  0  0  0  0  0  0
    4.0384   -5.2282   28.1780 C   0  0  0  0  0  0  0  0  0  0  0  0
    2.7329   -5.1678   27.7378 C   0  0  0  0  0  0  0  0  0  0  0  0
    1.7385   -4.7954   28.6216 C   0  0  0  0  0  0  0  0  0  0  0  0
    1.9868   -4.5348   30.0001 C   0  0  0  0  0  0  0  0  0  0  0  0
    0.8724   -4.3782   31.0478 C   0  0  0  0  0  0  0  0  0  0  0  0
   -0.4284   -4.7001   30.3148 C   0  0  0  0  0  0  0  0  0  0  0  0
   -0.4479   -6.2349   30.0107 C   0  0  0  0  0  0  0  0  0  0  0  0
   -0.8469   -6.7746   31.3386 C   0  0  0  0  0  0  0  0  0  0  0  0
   -1.2582   -8.1525   31.5112 N   0  0  0  0  0  0  0  0  0  0  0  0
   -1.3720   -8.1709   32.9551 N   0  0  0  0  0  0  0  0  0  0  0  0
   -0.3084   -7.3194   33.5094 C   0  0  0  0  0  0  0  0  0  0  0  0
   -0.9352   -6.2925   34.4219 C   0  0  0  0  0  0  0  0  0  0  0  0
    0.1092   -5.3551   34.8210 N   0  0  0  0  0  0  0  0  0  0  0  0
    1.0938   -5.8523   36.0868 S   0  0  0  0  0  0  0  0  0  0  0  0
    2.4655   -5.6154   35.7093 O   0  0  0  0  0  0  0  0  0  0  0  0
    0.6538   -7.1617   36.5155 O   0  0  0  0  0  0  0  0  0  0  0  0
    0.6484   -4.7791   37.2723 N   0  0  0  0  0  0  0  0  0  0  0  0
    1.2761   -3.4473   37.3120 C   0  0  0  0  0  0  0  0  0  0  0  0
    0.6910   -2.6050   38.4603 C   0  0  0  0  0  0  0  0  0  0  0  0
   -0.7577   -2.3679   38.3553 N   0  0  0  0  0  0  0  0  0  0  0  0
   -1.4485   -3.5088   37.7269 C   0  0  0  0  0  0  0  0  0  0  0  0
   -0.7188   -4.8587   37.8473 C   0  0  0  0  0  0  0  0  0  0  0  0
    0.5489   -4.4777   33.6992 C   0  0  0  0  0  0  0  0  0  0  0  0
    0.9858   -5.2578   32.4151 C   0  0  0  0  0  0  0  0  0  0  0  0
    0.3158   -6.6527   32.2927 C   0  0  0  0  0  0  0  0  0  0  0  0
    3.3126   -4.4132   30.3702 C   0  0  0  0  0  0  0  0  0  0  0  0
    4.3253   -4.7557   29.4628 C   0  0  0  0  0  0  0  0  0  0  0  0
    5.1428   -9.1010   24.6406 H   0  0  0  0  0  0  0  0  0  0  0  0
    6.2375   -8.1047   23.6261 H   0  0  0  0  0  0  0  0  0  0  0  0
    6.8934   -9.0390   24.9987 H   0  0  0  0  0  0  0  0  0  0  0  0
    6.4637   -6.5542   25.4611 H   0  0  0  0  0  0  0  0  0  0  0  0
    5.2961   -4.9902   26.4761 H   0  0  0  0  0  0  0  0  0  0  0  0
    6.0484   -5.9026   27.8076 H   0  0  0  0  0  0  0  0  0  0  0  0
    2.4859   -5.4401   26.7181 H   0  0  0  0  0  0  0  0  0  0  0  0
    0.7424   -4.7896   28.1925 H   0  0  0  0  0  0  0  0  0  0  0  0
    0.8690   -3.3164   31.3281 H   0  0  0  0  0  0  0  0  0  0  0  0
   -0.5824   -4.0991   29.4124 H   0  0  0  0  0  0  0  0  0  0  0  0
   -1.2566   -4.3764   30.9597 H   0  0  0  0  0  0  0  0  0  0  0  0
   -1.1131   -6.5165   29.1913 H   0  0  0  0  0  0  0  0  0  0  0  0
    0.5152   -6.6626   29.7153 H   0  0  0  0  0  0  0  0  0  0  0  0
   -1.6814   -6.1743   31.7030 H   0  0  0  0  0  0  0  0  0  0  0  0
   -0.5322   -8.7983   31.1717 H   0  0  0  0  0  0  0  0  0  0  0  0
   -1.4019   -9.0769   33.4192 H   0  0  0  0  0  0  0  0  0  0  0  0
    0.4520   -7.8844   34.0439 H   0  0  0  0  0  0  0  0  0  0  0  0
   -1.4511   -6.7411   35.2761 H   0  0  0  0  0  0  0  0  0  0  0  0
   -1.6790   -5.7355   33.8631 H   0  0  0  0  0  0  0  0  0  0  0  0
    1.1190   -2.9287   36.3598 H   0  0  0  0  0  0  0  0  0  0  0  0
    2.3536   -3.5590   37.4736 H   0  0  0  0  0  0  0  0  0  0  0  0
    1.2035   -1.6375   38.5044 H   0  0  0  0  0  0  0  0  0  0  0  0
    0.8888   -3.1052   39.4165 H   0  0  0  0  0  0  0  0  0  0  0  0
   -0.9342   -1.5329   37.7983 H   0  0  0  0  0  0  0  0  0  0  0  0
   -2.4427   -3.5875   38.1757 H   0  0  0  0  0  0  0  0  0  0  0  0
   -1.5922   -3.2832   36.6625 H   0  0  0  0  0  0  0  0  0  0  0  0
   -0.6326   -5.1537   38.8997 H   0  0  0  0  0  0  0  0  0  0  0  0
   -1.3149   -5.6280   37.3505 H   0  0  0  0  0  0  0  0  0  0  0  0
   -0.2944   -3.8191   33.4550 H   0  0  0  0  0  0  0  0  0  0  0  0
    1.3574   -3.8158   34.0278 H   0  0  0  0  0  0  0  0  0  0  0  0
    2.0522   -5.4606   32.5865 H   0  0  0  0  0  0  0  0  0  0  0  0
    1.1038   -7.3014   31.9089 H   0  0  0  0  0  0  0  0  0  0  0  0
    3.5906   -4.1148   31.3787 H   0  0  0  0  0  0  0  0  0  0  0  0
    5.3596   -4.7061   29.8026 H   0  0  0  0  0  0  0  0  0  0  0  0
  1  2  1  0
  2  3  1  0
  3  4  2  0
  3  5  1  0
  5  6  1  0
  6  7  2  0
  7  8  1  0
  8  9  2  0
  9 10  1  0
 10 11  1  0
 11 12  1  0
 12 13  1  0
 13 14  1  0
 14 15  1  0
 15 16  1  0
 16 17  1  0
 17 18  1  0
 18 19  1  0
 19 20  2  0
 19 21  2  0
 19 22  1  0
 22 23  1  0
 23 24  1  0
 24 25  1  0
 25 26  1  0
 26 27  1  0
 18 28  1  0
 28 29  1  0
 29 30  1  0
  9 31  1  0
 31 32  2  0
 32  6  1  0
 29 10  1  0
 30 13  1  0
 30 16  1  0
 27 22  1  0
  1 33  1  0
  1 34  1  0
  1 35  1  0
  2 36  1  0
  5 37  1  0
  5 38  1  0
  7 39  1  0
  8 40  1  0
 10 41  1  0
 11 42  1  0
 11 43  1  0
 12 44  1  0
 12 45  1  0
 13 46  1  0
 14 47  1  0
 15 48  1  0
 16 49  1  0
 17 50  1  0
 17 51  1  0
 23 52  1  0
 23 53  1  0
 24 54  1  0
 24 55  1  0
 25 56  1  0
 26 57  1  0
 26 58  1  0
 27 59  1  0
 27 60  1  0
 28 61  1  0
 28 62  1  0
 29 63  1  0
 30 64  1  0
 31 65  1  0
 32 66  1  0
M  END
>  <Energy>  (258) 
45.478447843557262

>  <compound_id>  (258) 
2494

>  <target_id>  (258) 
1

>  <reference_id>  (258) 
168

>  <inspiration_ids>  (258) 
[168, 40]

>  <energy_score>  (258) 
-40.12218773057755

>  <distance_score>  (258) 
1.9091726572310255

>  <path>  (258) 
/opt/xchem-fragalysis-2/maxwin/BulkDock/SCRATCH/505736/C2494-P168/C2494-P168.minimised.mol

>  <scratch_subdir>  (258) 
/opt/xchem-fragalysis-2/maxwin/BulkDock/SCRATCH/505736/C2494-P168

>  <fragmenstein_runtime>  (258) 
20.237449884414673

>  <fragmenstein_outcome>  (258) 
too moved

>  <fragmenstein_mode>  (258) 
expansion

>  <fragmenstein_error>  (258) 


$$$$
C2494-P40
     RDKit          3D

 66 70  0  0  0  0  0  0  0  0999 V2000
   10.8195   -4.7756   33.0043 C   0  0  0  0  0  0  0  0  0  0  0  0
    9.7377   -4.0693   32.3795 N   0  0  0  0  0  0  0  0  0  0  0  0
    8.3224   -4.3406   32.3535 C   0  0  0  0  0  0  0  0  0  0  0  0
    7.6976   -5.2667   32.7802 O   0  0  0  0  0  0  0  0  0  0  0  0
    7.6268   -3.1867   31.6101 C   0  0  0  0  0  0  0  0  0  0  0  0
    6.1280   -3.3341   31.4806 C   0  0  0  0  0  0  0  0  0  0  0  0
    5.5852   -4.1654   30.5008 C   0  0  0  0  0  0  0  0  0  0  0  0
    4.2063   -4.3199   30.4086 C   0  0  0  0  0  0  0  0  0  0  0  0
    3.3352   -3.6522   31.2906 C   0  0  0  0  0  0  0  0  0  0  0  0
    1.8277   -3.8241   31.2244 C   0  0  0  0  0  0  0  0  0  0  0  0
    1.3969   -3.9638   29.7384 C   0  0  0  0  0  0  0  0  0  0  0  0
    1.0916   -5.4220   29.3686 C   0  0  0  0  0  0  0  0  0  0  0  0
   -0.1457   -5.7953   30.1614 C   0  0  0  0  0  0  0  0  0  0  0  0
   -0.6747   -7.1593   30.0451 N   0  0  0  0  0  0  0  0  0  0  0  0
   -1.1953   -7.5113   31.3871 N   0  0  0  0  0  0  0  0  0  0  0  0
   -0.2049   -6.9090   32.2845 C   0  0  0  0  0  0  0  0  0  0  0  0
   -0.4568   -6.6784   33.7771 C   0  0  0  0  0  0  0  0  0  0  0  0
    0.7345   -5.9801   34.3383 N   0  0  0  0  0  0  0  0  0  0  0  0
    1.1071   -6.1686   35.9617 S   0  0  0  0  0  0  0  0  0  0  0  0
    2.5473   -6.1999   36.0600 O   0  0  0  0  0  0  0  0  0  0  0  0
    0.2863   -7.2093   36.5327 O   0  0  0  0  0  0  0  0  0  0  0  0
    0.5915   -4.6926   36.5954 N   0  0  0  0  0  0  0  0  0  0  0  0
    1.2994   -4.3195   37.8696 C   0  0  0  0  0  0  0  0  0  0  0  0
    0.5205   -3.2575   38.6788 C   0  0  0  0  0  0  0  0  0  0  0  0
   -0.2083   -2.3035   37.8244 N   0  0  0  0  0  0  0  0  0  0  0  0
   -1.2022   -3.0339   37.0102 C   0  0  0  0  0  0  0  0  0  0  0  0
   -0.8766   -4.5180   36.7320 C   0  0  0  0  0  0  0  0  0  0  0  0
    1.2587   -4.7678   33.6267 C   0  0  0  0  0  0  0  0  0  0  0  0
    1.3674   -5.0213   32.1056 C   0  0  0  0  0  0  0  0  0  0  0  0
    0.0180   -5.5539   31.6440 C   0  0  0  0  0  0  0  0  0  0  0  0
    3.8854   -2.8144   32.2621 C   0  0  0  0  0  0  0  0  0  0  0  0
    5.2677   -2.6622   32.3583 C   0  0  0  0  0  0  0  0  0  0  0  0
   11.6496   -4.8396   32.2976 H   0  0  0  0  0  0  0  0  0  0  0  0
   10.4880   -5.7748   33.2960 H   0  0  0  0  0  0  0  0  0  0  0  0
   11.1309   -4.2166   33.8897 H   0  0  0  0  0  0  0  0  0  0  0  0
    9.9047   -3.1470   31.9953 H   0  0  0  0  0  0  0  0  0  0  0  0
    8.0610   -3.1054   30.6053 H   0  0  0  0  0  0  0  0  0  0  0  0
    7.8553   -2.2502   32.1348 H   0  0  0  0  0  0  0  0  0  0  0  0
    6.2341   -4.7143   29.8222 H   0  0  0  0  0  0  0  0  0  0  0  0
    3.8391   -4.9930   29.6416 H   0  0  0  0  0  0  0  0  0  0  0  0
    1.3633   -2.9017   31.5998 H   0  0  0  0  0  0  0  0  0  0  0  0
    2.1244   -3.5352   29.0390 H   0  0  0  0  0  0  0  0  0  0  0  0
    0.4893   -3.3618   29.5871 H   0  0  0  0  0  0  0  0  0  0  0  0
    0.9189   -5.4862   28.2941 H   0  0  0  0  0  0  0  0  0  0  0  0
    1.9280   -6.0892   29.5886 H   0  0  0  0  0  0  0  0  0  0  0  0
   -0.8938   -5.0918   29.8077 H   0  0  0  0  0  0  0  0  0  0  0  0
   -1.4078   -7.2048   29.3329 H   0  0  0  0  0  0  0  0  0  0  0  0
   -2.1129   -7.1009   31.5818 H   0  0  0  0  0  0  0  0  0  0  0  0
    0.6943   -7.5220   32.2065 H   0  0  0  0  0  0  0  0  0  0  0  0
   -0.6049   -7.6498   34.2577 H   0  0  0  0  0  0  0  0  0  0  0  0
   -1.3515   -6.0730   33.9372 H   0  0  0  0  0  0  0  0  0  0  0  0
    2.2760   -3.9068   37.5905 H   0  0  0  0  0  0  0  0  0  0  0  0
    1.4562   -5.2008   38.5016 H   0  0  0  0  0  0  0  0  0  0  0  0
    1.2197   -2.7092   39.3200 H   0  0  0  0  0  0  0  0  0  0  0  0
   -0.1903   -3.7489   39.3554 H   0  0  0  0  0  0  0  0  0  0  0  0
    0.4765   -1.9092   37.1761 H   0  0  0  0  0  0  0  0  0  0  0  0
   -2.1787   -2.9685   37.5024 H   0  0  0  0  0  0  0  0  0  0  0  0
   -1.3039   -2.5038   36.0554 H   0  0  0  0  0  0  0  0  0  0  0  0
   -1.2414   -5.1401   37.5577 H   0  0  0  0  0  0  0  0  0  0  0  0
   -1.3908   -4.8233   35.8205 H   0  0  0  0  0  0  0  0  0  0  0  0
    0.5832   -3.9268   33.8219 H   0  0  0  0  0  0  0  0  0  0  0  0
    2.2468   -4.5107   34.0208 H   0  0  0  0  0  0  0  0  0  0  0  0
    2.1066   -5.8192   31.9836 H   0  0  0  0  0  0  0  0  0  0  0  0
   -0.7778   -4.8569   31.9529 H   0  0  0  0  0  0  0  0  0  0  0  0
    3.2497   -2.2789   32.9630 H   0  0  0  0  0  0  0  0  0  0  0  0
    5.6732   -2.0211   33.1384 H   0  0  0  0  0  0  0  0  0  0  0  0
  1  2  1  0
  2  3  1  0
  3  4  2  0
  3  5  1  0
  5  6  1  0
  6  7  2  0
  7  8  1  0
  8  9  2  0
  9 10  1  0
 10 11  1  0
 11 12  1  0
 12 13  1  0
 13 14  1  0
 14 15  1  0
 15 16  1  0
 16 17  1  0
 17 18  1  0
 18 19  1  0
 19 20  2  0
 19 21  2  0
 19 22  1  0
 22 23  1  0
 23 24  1  0
 24 25  1  0
 25 26  1  0
 26 27  1  0
 18 28  1  0
 28 29  1  0
 29 30  1  0
  9 31  1  0
 31 32  2  0
 32  6  1  0
 29 10  1  0
 30 13  1  0
 30 16  1  0
 27 22  1  0
  1 33  1  0
  1 34  1  0
  1 35  1  0
  2 36  1  0
  5 37  1  0
  5 38  1  0
  7 39  1  0
  8 40  1  0
 10 41  1  0
 11 42  1  0
 11 43  1  0
 12 44  1  0
 12 45  1  0
 13 46  1  0
 14 47  1  0
 15 48  1  0
 16 49  1  0
 17 50  1  0
 17 51  1  0
 23 52  1  0
 23 53  1  0
 24 54  1  0
 24 55  1  0
 25 56  1  0
 26 57  1  0
 26 58  1  0
 27 59  1  0
 27 60  1  0
 28 61  1  0
 28 62  1  0
 29 63  1  0
 30 64  1  0
 31 65  1  0
 32 66  1  0
M  END
>  <Energy>  (259) 
10.74096501549888

>  <compound_id>  (259) 
2494

>  <target_id>  (259) 
1

>  <reference_id>  (259) 
40

>  <inspiration_ids>  (259) 
[168, 40]

>  <energy_score>  (259) 
-52.4807686798718

>  <distance_score>  (259) 
3.1762524991241703

>  <path>  (259) 
/opt/xchem-fragalysis-2/maxwin/BulkDock/SCRATCH/505736/C2494-P40/C2494-P40.minimised.mol

>  <scratch_subdir>  (259) 
/opt/xchem-fragalysis-2/maxwin/BulkDock/SCRATCH/505736/C2494-P40

>  <fragmenstein_runtime>  (259) 
14.722650051116943

>  <fragmenstein_outcome>  (259) 
too moved

>  <fragmenstein_mode>  (259) 
expansion

>  <fragmenstein_error>  (259) 


$$$$
C2496-P168
     RDKit          3D

 55 59  0  0  0  0  0  0  0  0999 V2000
    0.6933    1.8968   32.5939 C   0  0  0  0  0  0  0  0  0  0  0  0
   -0.5439    1.1900   32.5503 O   0  0  0  0  0  0  0  0  0  0  0  0
   -0.5209   -0.0701   32.0175 C   0  0  0  0  0  0  0  0  0  0  0  0
    0.5021   -0.5217   31.1808 C   0  0  0  0  0  0  0  0  0  0  0  0
    0.6085   -1.8775   30.8835 C   0  0  0  0  0  0  0  0  0  0  0  0
   -0.3129   -2.7836   31.4113 C   0  0  0  0  0  0  0  0  0  0  0  0
   -0.1251   -4.2505   31.2488 C   0  0  0  0  0  0  0  0  0  0  0  0
    0.0057   -4.8116   29.8741 C   0  0  0  0  0  0  0  0  0  0  0  0
   -0.1526   -6.1313   29.6548 C   0  0  0  0  0  0  0  0  0  0  0  0
   -0.4523   -6.9450   30.7356 N   0  0  0  0  0  0  0  0  0  0  0  0
   -0.9563   -8.2027   30.8034 N   0  0  0  0  0  0  0  0  0  0  0  0
   -1.2133   -8.4912   32.0841 N   0  0  0  0  0  0  0  0  0  0  0  0
   -0.8292   -7.4290   32.8403 C   0  0  0  0  0  0  0  0  0  0  0  0
   -0.4076   -6.4508   32.0068 C   0  0  0  0  0  0  0  0  0  0  0  0
   -0.1450   -5.1028   32.3264 C   0  0  0  0  0  0  0  0  0  0  0  0
   -0.1068   -4.7769   33.8353 C   0  0  0  0  0  0  0  0  0  0  0  0
   -0.2753   -5.9875   34.7326 N   0  0  0  0  0  0  0  0  0  0  0  0
    0.6427   -6.0916   36.1256 S   0  0  0  0  0  0  0  0  0  0  0  0
    2.0326   -6.0386   35.7394 O   0  0  0  0  0  0  0  0  0  0  0  0
    0.1309   -7.1687   36.9399 O   0  0  0  0  0  0  0  0  0  0  0  0
    0.2210   -4.6507   36.8714 N   0  0  0  0  0  0  0  0  0  0  0  0
    1.2226   -4.1389   37.8606 C   0  0  0  0  0  0  0  0  0  0  0  0
    0.5766   -3.3293   39.0066 C   0  0  0  0  0  0  0  0  0  0  0  0
   -0.4885   -2.4257   38.5585 N   0  0  0  0  0  0  0  0  0  0  0  0
   -1.5220   -3.1501   37.8029 C   0  0  0  0  0  0  0  0  0  0  0  0
   -1.1659   -4.5935   37.3977 C   0  0  0  0  0  0  0  0  0  0  0  0
   -0.9350   -7.2531   34.2967 C   0  0  0  0  0  0  0  0  0  0  0  0
   -1.4470   -2.2895   32.0801 C   0  0  0  0  0  0  0  0  0  0  0  0
   -1.5579   -0.9394   32.4032 C   0  0  0  0  0  0  0  0  0  0  0  0
   -2.6104   -0.3964   33.0986 O   0  0  0  0  0  0  0  0  0  0  0  0
   -3.4246   -1.2867   33.8559 C   0  0  0  0  0  0  0  0  0  0  0  0
    0.9717    2.2525   31.5969 H   0  0  0  0  0  0  0  0  0  0  0  0
    1.4900    1.2890   33.0360 H   0  0  0  0  0  0  0  0  0  0  0  0
    0.5521    2.7749   33.2315 H   0  0  0  0  0  0  0  0  0  0  0  0
    1.2675    0.1481   30.8018 H   0  0  0  0  0  0  0  0  0  0  0  0
    1.4596   -2.2222   30.3006 H   0  0  0  0  0  0  0  0  0  0  0  0
    0.1632   -4.1252   29.0462 H   0  0  0  0  0  0  0  0  0  0  0  0
   -0.1568   -6.5924   28.6770 H   0  0  0  0  0  0  0  0  0  0  0  0
    0.8550   -4.2966   34.0480 H   0  0  0  0  0  0  0  0  0  0  0  0
   -0.9039   -4.0768   34.0969 H   0  0  0  0  0  0  0  0  0  0  0  0
    1.7936   -4.9645   38.3002 H   0  0  0  0  0  0  0  0  0  0  0  0
    1.9197   -3.4954   37.3108 H   0  0  0  0  0  0  0  0  0  0  0  0
    0.1716   -4.0175   39.7596 H   0  0  0  0  0  0  0  0  0  0  0  0
    1.3549   -2.7451   39.5101 H   0  0  0  0  0  0  0  0  0  0  0  0
   -0.9061   -1.9534   39.3592 H   0  0  0  0  0  0  0  0  0  0  0  0
   -1.7310   -2.5672   36.8984 H   0  0  0  0  0  0  0  0  0  0  0  0
   -2.4505   -3.1695   38.3852 H   0  0  0  0  0  0  0  0  0  0  0  0
   -1.2632   -5.2599   38.2632 H   0  0  0  0  0  0  0  0  0  0  0  0
   -1.8727   -4.9233   36.6326 H   0  0  0  0  0  0  0  0  0  0  0  0
   -1.9825   -7.2262   34.6070 H   0  0  0  0  0  0  0  0  0  0  0  0
   -0.4679   -8.1155   34.7758 H   0  0  0  0  0  0  0  0  0  0  0  0
   -2.2151   -2.9862   32.3926 H   0  0  0  0  0  0  0  0  0  0  0  0
   -4.0428   -1.9040   33.1964 H   0  0  0  0  0  0  0  0  0  0  0  0
   -2.8193   -1.9039   34.5277 H   0  0  0  0  0  0  0  0  0  0  0  0
   -4.0967   -0.6817   34.4718 H   0  0  0  0  0  0  0  0  0  0  0  0
  1  2  1  0
  2  3  1  0
  3  4  2  0
  4  5  1  0
  5  6  2  0
  6  7  1  0
  7  8  1  0
  8  9  2  0
  9 10  1  0
 10 11  1  0
 11 12  2  0
 12 13  1  0
 13 14  2  0
 14 15  1  0
 15 16  1  0
 16 17  1  0
 17 18  1  0
 18 19  2  0
 18 20  2  0
 18 21  1  0
 21 22  1  0
 22 23  1  0
 23 24  1  0
 24 25  1  0
 25 26  1  0
 17 27  1  0
  6 28  1  0
 28 29  2  0
 29 30  1  0
 30 31  1  0
 29  3  1  0
 15  7  2  0
 26 21  1  0
 14 10  1  0
 27 13  1  0
  1 32  1  0
  1 33  1  0
  1 34  1  0
  4 35  1  0
  5 36  1  0
  8 37  1  0
  9 38  1  0
 16 39  1  0
 16 40  1  0
 22 41  1  0
 22 42  1  0
 23 43  1  0
 23 44  1  0
 24 45  1  0
 25 46  1  0
 25 47  1  0
 26 48  1  0
 26 49  1  0
 27 50  1  0
 27 51  1  0
 28 52  1  0
 31 53  1  0
 31 54  1  0
 31 55  1  0
M  END
>  <Energy>  (260) 
-24.107536995782269

>  <compound_id>  (260) 
2496

>  <target_id>  (260) 
1

>  <reference_id>  (260) 
168

>  <inspiration_ids>  (260) 
[168, 59]

>  <energy_score>  (260) 
-45.31141533831984

>  <distance_score>  (260) 
1.2337710393038726

>  <path>  (260) 
/opt/xchem-fragalysis-2/maxwin/BulkDock/SCRATCH/505736/C2496-P168/C2496-P168.minimised.mol

>  <scratch_subdir>  (260) 
/opt/xchem-fragalysis-2/maxwin/BulkDock/SCRATCH/505736/C2496-P168

>  <fragmenstein_runtime>  (260) 
9.308119773864746

>  <fragmenstein_outcome>  (260) 
too moved

>  <fragmenstein_mode>  (260) 
expansion

>  <fragmenstein_error>  (260) 


$$$$
C2496-P59
     RDKit          3D

 55 59  0  0  0  0  0  0  0  0999 V2000
    0.4931    2.0713   31.6982 C   0  0  0  0  0  0  0  0  0  0  0  0
   -0.5858    1.2474   32.1308 O   0  0  0  0  0  0  0  0  0  0  0  0
   -0.5116   -0.0942   31.8753 C   0  0  0  0  0  0  0  0  0  0  0  0
    0.5023   -0.6653   31.1017 C   0  0  0  0  0  0  0  0  0  0  0  0
    0.6349   -2.0501   31.0340 C   0  0  0  0  0  0  0  0  0  0  0  0
   -0.2407   -2.8763   31.7414 C   0  0  0  0  0  0  0  0  0  0  0  0
   -0.1222   -4.3581   31.6875 C   0  0  0  0  0  0  0  0  0  0  0  0
   -0.2558   -4.9900   30.3553 C   0  0  0  0  0  0  0  0  0  0  0  0
   -0.6371   -6.2735   30.2662 C   0  0  0  0  0  0  0  0  0  0  0  0
   -0.8136   -7.0205   31.3876 N   0  0  0  0  0  0  0  0  0  0  0  0
   -1.4009   -8.2235   31.5500 N   0  0  0  0  0  0  0  0  0  0  0  0
   -1.5374   -8.4243   32.8571 N   0  0  0  0  0  0  0  0  0  0  0  0
   -0.9380   -7.3971   33.5127 C   0  0  0  0  0  0  0  0  0  0  0  0
   -0.5250   -6.4926   32.5966 C   0  0  0  0  0  0  0  0  0  0  0  0
   -0.1086   -5.1544   32.8053 C   0  0  0  0  0  0  0  0  0  0  0  0
    0.0680   -4.7732   34.2843 C   0  0  0  0  0  0  0  0  0  0  0  0
    0.1016   -6.0111   35.1570 N   0  0  0  0  0  0  0  0  0  0  0  0
    0.9483   -5.9831   36.5804 S   0  0  0  0  0  0  0  0  0  0  0  0
    2.3339   -5.7566   36.2475 O   0  0  0  0  0  0  0  0  0  0  0  0
    0.5379   -7.0952   37.4048 O   0  0  0  0  0  0  0  0  0  0  0  0
    0.3348   -4.5837   37.2652 N   0  0  0  0  0  0  0  0  0  0  0  0
    1.2603   -3.8949   38.2162 C   0  0  0  0  0  0  0  0  0  0  0  0
    0.5116   -3.0516   39.2700 C   0  0  0  0  0  0  0  0  0  0  0  0
   -0.6374   -2.3205   38.7248 N   0  0  0  0  0  0  0  0  0  0  0  0
   -1.5808   -3.2328   38.0617 C   0  0  0  0  0  0  0  0  0  0  0  0
   -1.0524   -4.6532   37.7738 C   0  0  0  0  0  0  0  0  0  0  0  0
   -0.8502   -7.1401   34.9552 C   0  0  0  0  0  0  0  0  0  0  0  0
   -1.3401   -2.2986   32.3966 C   0  0  0  0  0  0  0  0  0  0  0  0
   -1.4885   -0.9150   32.4782 C   0  0  0  0  0  0  0  0  0  0  0  0
   -2.5289   -0.2953   33.1301 O   0  0  0  0  0  0  0  0  0  0  0  0
   -3.4186   -1.1145   33.8838 C   0  0  0  0  0  0  0  0  0  0  0  0
    0.5336    2.1198   30.6053 H   0  0  0  0  0  0  0  0  0  0  0  0
    1.4460    1.7342   32.1195 H   0  0  0  0  0  0  0  0  0  0  0  0
    0.3079    3.0844   32.0683 H   0  0  0  0  0  0  0  0  0  0  0  0
    1.2320   -0.0621   30.5716 H   0  0  0  0  0  0  0  0  0  0  0  0
    1.4531   -2.4752   30.4566 H   0  0  0  0  0  0  0  0  0  0  0  0
   -0.2021   -4.3645   29.4669 H   0  0  0  0  0  0  0  0  0  0  0  0
   -0.9757   -6.7740   29.3874 H   0  0  0  0  0  0  0  0  0  0  0  0
    1.0049   -4.2172   34.3955 H   0  0  0  0  0  0  0  0  0  0  0  0
   -0.7685   -4.1502   34.6156 H   0  0  0  0  0  0  0  0  0  0  0  0
    1.8923   -4.6212   38.7396 H   0  0  0  0  0  0  0  0  0  0  0  0
    1.9075   -3.2382   37.6229 H   0  0  0  0  0  0  0  0  0  0  0  0
    0.1700   -3.7014   40.0861 H   0  0  0  0  0  0  0  0  0  0  0  0
    1.2130   -2.3386   39.7173 H   0  0  0  0  0  0  0  0  0  0  0  0
   -1.1090   -1.8079   39.4686 H   0  0  0  0  0  0  0  0  0  0  0  0
   -1.8726   -2.7629   37.1151 H   0  0  0  0  0  0  0  0  0  0  0  0
   -2.4922   -3.3143   38.6652 H   0  0  0  0  0  0  0  0  0  0  0  0
   -1.0864   -5.2620   38.6851 H   0  0  0  0  0  0  0  0  0  0  0  0
   -1.6997   -5.1158   37.0262 H   0  0  0  0  0  0  0  0  0  0  0  0
   -1.8277   -6.8722   35.3610 H   0  0  0  0  0  0  0  0  0  0  0  0
   -0.4957   -8.0515   35.4438 H   0  0  0  0  0  0  0  0  0  0  0  0
   -2.0663   -2.9560   32.8605 H   0  0  0  0  0  0  0  0  0  0  0  0
   -3.9900   -1.7789   33.2274 H   0  0  0  0  0  0  0  0  0  0  0  0
   -2.8829   -1.6763   34.6562 H   0  0  0  0  0  0  0  0  0  0  0  0
   -4.1313   -0.4542   34.3872 H   0  0  0  0  0  0  0  0  0  0  0  0
  1  2  1  0
  2  3  1  0
  3  4  2  0
  4  5  1  0
  5  6  2  0
  6  7  1  0
  7  8  1  0
  8  9  2  0
  9 10  1  0
 10 11  1  0
 11 12  2  0
 12 13  1  0
 13 14  2  0
 14 15  1  0
 15 16  1  0
 16 17  1  0
 17 18  1  0
 18 19  2  0
 18 20  2  0
 18 21  1  0
 21 22  1  0
 22 23  1  0
 23 24  1  0
 24 25  1  0
 25 26  1  0
 17 27  1  0
  6 28  1  0
 28 29  2  0
 29 30  1  0
 30 31  1  0
 29  3  1  0
 15  7  2  0
 26 21  1  0
 14 10  1  0
 27 13  1  0
  1 32  1  0
  1 33  1  0
  1 34  1  0
  4 35  1  0
  5 36  1  0
  8 37  1  0
  9 38  1  0
 16 39  1  0
 16 40  1  0
 22 41  1  0
 22 42  1  0
 23 43  1  0
 23 44  1  0
 24 45  1  0
 25 46  1  0
 25 47  1  0
 26 48  1  0
 26 49  1  0
 27 50  1  0
 27 51  1  0
 28 52  1  0
 31 53  1  0
 31 54  1  0
 31 55  1  0
M  END
>  <Energy>  (261) 
-22.83509169261783

>  <compound_id>  (261) 
2496

>  <target_id>  (261) 
1

>  <reference_id>  (261) 
59

>  <inspiration_ids>  (261) 
[168, 59]

>  <energy_score>  (261) 
-44.038970035156325

>  <distance_score>  (261) 
1.3051583108977987

>  <path>  (261) 
/opt/xchem-fragalysis-2/maxwin/BulkDock/SCRATCH/505736/C2496-P59/C2496-P59.minimised.mol

>  <scratch_subdir>  (261) 
/opt/xchem-fragalysis-2/maxwin/BulkDock/SCRATCH/505736/C2496-P59

>  <fragmenstein_runtime>  (261) 
9.019298076629639

>  <fragmenstein_outcome>  (261) 
too moved

>  <fragmenstein_mode>  (261) 
expansion

>  <fragmenstein_error>  (261) 


$$$$
C2499-P168
     RDKit          3D

 54 58  0  0  0  0  0  0  0  0999 V2000
   -2.9615  -12.6235   26.8888 C   0  0  0  0  0  0  0  0  0  0  0  0
   -2.2435  -11.6166   27.6033 N   0  0  0  0  0  0  0  0  0  0  0  0
   -2.0673  -11.4120   28.9825 C   0  0  0  0  0  0  0  0  0  0  0  0
   -2.4032  -12.0627   29.8829 O   0  0  0  0  0  0  0  0  0  0  0  0
   -1.0232   -9.9516   29.5831 C   0  0  0  0  0  0  0  0  0  0  0  0
   -1.1428   -9.4586   30.9052 C   0  0  0  0  0  0  0  0  0  0  0  0
   -0.7167   -8.2271   31.4569 C   0  0  0  0  0  0  0  0  0  0  0  0
    0.0975   -7.3433   30.7936 C   0  0  0  0  0  0  0  0  0  0  0  0
    0.6959   -6.1328   31.5431 C   0  0  0  0  0  0  0  0  0  0  0  0
   -0.2406   -4.9748   31.6760 C   0  0  0  0  0  0  0  0  0  0  0  0
   -0.9976   -4.9173   32.7977 C   0  0  0  0  0  0  0  0  0  0  0  0
   -0.8213   -5.8923   33.7972 N   0  0  0  0  0  0  0  0  0  0  0  0
   -1.4699   -6.2191   34.9458 N   0  0  0  0  0  0  0  0  0  0  0  0
   -0.6608   -6.9515   35.7133 N   0  0  0  0  0  0  0  0  0  0  0  0
    0.4745   -7.1487   35.0088 C   0  0  0  0  0  0  0  0  0  0  0  0
    0.2918   -6.6956   33.7455 C   0  0  0  0  0  0  0  0  0  0  0  0
    1.2844   -6.4187   32.7623 C   0  0  0  0  0  0  0  0  0  0  0  0
    2.4204   -5.6462   33.4978 C   0  0  0  0  0  0  0  0  0  0  0  0
    2.6314   -6.1327   34.9456 N   0  0  0  0  0  0  0  0  0  0  0  0
    2.9245   -4.9403   36.1047 S   0  0  0  0  0  0  0  0  0  0  0  0
    3.6636   -3.8940   35.4417 O   0  0  0  0  0  0  0  0  0  0  0  0
    3.4355   -5.6159   37.2732 O   0  0  0  0  0  0  0  0  0  0  0  0
    1.3560   -4.4064   36.4327 N   0  0  0  0  0  0  0  0  0  0  0  0
    1.0042   -3.0401   35.9481 C   0  0  0  0  0  0  0  0  0  0  0  0
   -0.2385   -2.4567   36.6536 C   0  0  0  0  0  0  0  0  0  0  0  0
   -1.2535   -3.4602   36.9886 N   0  0  0  0  0  0  0  0  0  0  0  0
   -0.6766   -4.4335   37.9346 C   0  0  0  0  0  0  0  0  0  0  0  0
    0.8457   -4.6813   37.8149 C   0  0  0  0  0  0  0  0  0  0  0  0
    1.8490   -7.2998   35.4944 C   0  0  0  0  0  0  0  0  0  0  0  0
    0.2784   -7.7079   29.4619 C   0  0  0  0  0  0  0  0  0  0  0  0
   -0.2747   -8.9565   28.9023 C   0  0  0  0  0  0  0  0  0  0  0  0
   -2.4946  -13.5939   27.0063 H   0  0  0  0  0  0  0  0  0  0  0  0
   -3.9479  -12.5954   27.3171 H   0  0  0  0  0  0  0  0  0  0  0  0
   -3.0183  -12.4111   25.8317 H   0  0  0  0  0  0  0  0  0  0  0  0
   -1.7624  -10.9096   27.1093 H   0  0  0  0  0  0  0  0  0  0  0  0
   -1.6831   -9.9092   31.6893 H   0  0  0  0  0  0  0  0  0  0  0  0
   -1.0516   -8.0871   32.4784 H   0  0  0  0  0  0  0  0  0  0  0  0
   -0.3018   -4.2455   30.8757 H   0  0  0  0  0  0  0  0  0  0  0  0
   -1.7050   -4.1284   33.0003 H   0  0  0  0  0  0  0  0  0  0  0  0
    3.3674   -5.7670   32.9745 H   0  0  0  0  0  0  0  0  0  0  0  0
    2.1735   -4.5787   33.4923 H   0  0  0  0  0  0  0  0  0  0  0  0
    1.8346   -2.3432   36.1017 H   0  0  0  0  0  0  0  0  0  0  0  0
    0.8021   -3.1122   34.8739 H   0  0  0  0  0  0  0  0  0  0  0  0
   -0.6871   -1.6918   36.0097 H   0  0  0  0  0  0  0  0  0  0  0  0
    0.0670   -1.9357   37.5704 H   0  0  0  0  0  0  0  0  0  0  0  0
   -1.4859   -3.9863   36.1387 H   0  0  0  0  0  0  0  0  0  0  0  0
   -1.2105   -5.3819   37.8126 H   0  0  0  0  0  0  0  0  0  0  0  0
   -0.8971   -4.1065   38.9579 H   0  0  0  0  0  0  0  0  0  0  0  0
    1.0425   -5.7193   38.1003 H   0  0  0  0  0  0  0  0  0  0  0  0
    1.3774   -4.0241   38.5145 H   0  0  0  0  0  0  0  0  0  0  0  0
    2.3094   -8.2122   35.1062 H   0  0  0  0  0  0  0  0  0  0  0  0
    1.8824   -7.3725   36.5836 H   0  0  0  0  0  0  0  0  0  0  0  0
    0.8375   -7.0488   28.8014 H   0  0  0  0  0  0  0  0  0  0  0  0
   -0.1488   -9.0249   27.8563 H   0  0  0  0  0  0  0  0  0  0  0  0
  1  2  1  0
  2  3  1  0
  3  4  2  0
  3  5  1  0
  5  6  2  0
  6  7  1  0
  7  8  2  0
  8  9  1  0
  9 10  1  0
 10 11  2  0
 11 12  1  0
 12 13  1  0
 13 14  2  0
 14 15  1  0
 15 16  2  0
 16 17  1  0
 17 18  1  0
 18 19  1  0
 19 20  1  0
 20 21  2  0
 20 22  2  0
 20 23  1  0
 23 24  1  0
 24 25  1  0
 25 26  1  0
 26 27  1  0
 27 28  1  0
 19 29  1  0
  8 30  1  0
 30 31  2  0
 31  5  1  0
 17  9  2  0
 28 23  1  0
 16 12  1  0
 29 15  1  0
  1 32  1  0
  1 33  1  0
  1 34  1  0
  2 35  1  0
  6 36  1  0
  7 37  1  0
 10 38  1  0
 11 39  1  0
 18 40  1  0
 18 41  1  0
 24 42  1  0
 24 43  1  0
 25 44  1  0
 25 45  1  0
 26 46  1  0
 27 47  1  0
 27 48  1  0
 28 49  1  0
 28 50  1  0
 29 51  1  0
 29 52  1  0
 30 53  1  0
 31 54  1  0
M  END
>  <Energy>  (262) 
95.839795977317522

>  <compound_id>  (262) 
2499

>  <target_id>  (262) 
1

>  <reference_id>  (262) 
168

>  <inspiration_ids>  (262) 
[168, 116]

>  <energy_score>  (262) 
94.78268065897295

>  <distance_score>  (262) 
2.672520270290472

>  <path>  (262) 
/opt/xchem-fragalysis-2/maxwin/BulkDock/SCRATCH/505736/C2499-P168/C2499-P168.minimised.mol

>  <scratch_subdir>  (262) 
/opt/xchem-fragalysis-2/maxwin/BulkDock/SCRATCH/505736/C2499-P168

>  <fragmenstein_runtime>  (262) 
25.879645586013794

>  <fragmenstein_outcome>  (262) 
too moved

>  <fragmenstein_mode>  (262) 
expansion

>  <fragmenstein_error>  (262) 


$$$$
C2499-P116
     RDKit          3D

 54 58  0  0  0  0  0  0  0  0999 V2000
   -1.9977  -13.1461   26.5402 C   0  0  0  0  0  0  0  0  0  0  0  0
   -1.3328  -12.9634   27.7649 N   0  0  0  0  0  0  0  0  0  0  0  0
   -0.1104  -12.3286   28.0695 C   0  0  0  0  0  0  0  0  0  0  0  0
    0.7186  -11.8509   27.3603 O   0  0  0  0  0  0  0  0  0  0  0  0
    0.0661  -12.1762   29.5221 C   0  0  0  0  0  0  0  0  0  0  0  0
    1.3044  -12.0122   30.0940 C   0  0  0  0  0  0  0  0  0  0  0  0
    1.3917  -11.0931   31.1399 C   0  0  0  0  0  0  0  0  0  0  0  0
    0.2705  -10.3167   31.5788 C   0  0  0  0  0  0  0  0  0  0  0  0
    0.1428   -8.7510   31.5714 C   0  0  0  0  0  0  0  0  0  0  0  0
   -0.3794   -8.4449   30.1558 C   0  0  0  0  0  0  0  0  0  0  0  0
   -1.3420   -7.5560   30.0534 C   0  0  0  0  0  0  0  0  0  0  0  0
   -1.6288   -7.0176   31.2644 N   0  0  0  0  0  0  0  0  0  0  0  0
   -2.4030   -7.6361   32.1862 N   0  0  0  0  0  0  0  0  0  0  0  0
   -2.1985   -6.9226   33.2931 N   0  0  0  0  0  0  0  0  0  0  0  0
   -1.2751   -5.9648   33.0618 C   0  0  0  0  0  0  0  0  0  0  0  0
   -0.5989   -6.6292   32.0988 C   0  0  0  0  0  0  0  0  0  0  0  0
    0.3089   -7.6466   32.4430 C   0  0  0  0  0  0  0  0  0  0  0  0
    0.7494   -7.3496   33.9485 C   0  0  0  0  0  0  0  0  0  0  0  0
    0.6207   -5.8836   34.4577 N   0  0  0  0  0  0  0  0  0  0  0  0
    1.1491   -5.6903   36.0705 S   0  0  0  0  0  0  0  0  0  0  0  0
    2.5926   -5.7202   36.0290 O   0  0  0  0  0  0  0  0  0  0  0  0
    0.4094   -6.6091   36.8987 O   0  0  0  0  0  0  0  0  0  0  0  0
    0.6677   -4.0951   36.4105 N   0  0  0  0  0  0  0  0  0  0  0  0
    1.7130   -3.2584   37.0749 C   0  0  0  0  0  0  0  0  0  0  0  0
    1.7965   -3.5622   38.5845 C   0  0  0  0  0  0  0  0  0  0  0  0
    0.4988   -3.6706   39.2693 N   0  0  0  0  0  0  0  0  0  0  0  0
   -0.5997   -3.1887   38.4352 C   0  0  0  0  0  0  0  0  0  0  0  0
   -0.6764   -3.9148   37.0768 C   0  0  0  0  0  0  0  0  0  0  0  0
   -0.6917   -5.2777   34.2035 C   0  0  0  0  0  0  0  0  0  0  0  0
   -0.9546  -10.7835   31.2255 C   0  0  0  0  0  0  0  0  0  0  0  0
   -1.0590  -11.6437   30.1438 C   0  0  0  0  0  0  0  0  0  0  0  0
   -2.3216  -14.1760   26.4843 H   0  0  0  0  0  0  0  0  0  0  0  0
   -1.3512  -12.8889   25.7275 H   0  0  0  0  0  0  0  0  0  0  0  0
   -2.8495  -12.4754   26.5200 H   0  0  0  0  0  0  0  0  0  0  0  0
   -1.7395  -13.3201   28.6177 H   0  0  0  0  0  0  0  0  0  0  0  0
    2.2027  -12.3852   29.6143 H   0  0  0  0  0  0  0  0  0  0  0  0
    2.3952  -10.8200   31.4712 H   0  0  0  0  0  0  0  0  0  0  0  0
   -0.1030   -9.0897   29.3322 H   0  0  0  0  0  0  0  0  0  0  0  0
   -1.8978   -7.3096   29.1689 H   0  0  0  0  0  0  0  0  0  0  0  0
    0.2759   -8.0183   34.6559 H   0  0  0  0  0  0  0  0  0  0  0  0
    1.7951   -7.4560   33.9914 H   0  0  0  0  0  0  0  0  0  0  0  0
    2.6896   -3.3761   36.5951 H   0  0  0  0  0  0  0  0  0  0  0  0
    1.4453   -2.2051   36.9177 H   0  0  0  0  0  0  0  0  0  0  0  0
    2.3930   -2.7767   39.0628 H   0  0  0  0  0  0  0  0  0  0  0  0
    2.3329   -4.5047   38.7408 H   0  0  0  0  0  0  0  0  0  0  0  0
    0.5255   -3.1813   40.1625 H   0  0  0  0  0  0  0  0  0  0  0  0
   -0.4949   -2.1079   38.2771 H   0  0  0  0  0  0  0  0  0  0  0  0
   -1.5475   -3.3309   38.9665 H   0  0  0  0  0  0  0  0  0  0  0  0
   -1.3098   -3.3330   36.3972 H   0  0  0  0  0  0  0  0  0  0  0  0
   -1.1779   -4.8741   37.2317 H   0  0  0  0  0  0  0  0  0  0  0  0
   -1.3569   -5.3863   35.0586 H   0  0  0  0  0  0  0  0  0  0  0  0
   -0.5704   -4.2150   33.9717 H   0  0  0  0  0  0  0  0  0  0  0  0
   -1.8228  -10.2056   31.5456 H   0  0  0  0  0  0  0  0  0  0  0  0
   -2.0386  -11.7130   29.6772 H   0  0  0  0  0  0  0  0  0  0  0  0
  1  2  1  0
  2  3  1  0
  3  4  2  0
  3  5  1  0
  5  6  2  0
  6  7  1  0
  7  8  2  0
  8  9  1  0
  9 10  1  0
 10 11  2  0
 11 12  1  0
 12 13  1  0
 13 14  2  0
 14 15  1  0
 15 16  2  0
 16 17  1  0
 17 18  1  0
 18 19  1  0
 19 20  1  0
 20 21  2  0
 20 22  2  0
 20 23  1  0
 23 24  1  0
 24 25  1  0
 25 26  1  0
 26 27  1  0
 27 28  1  0
 19 29  1  0
  8 30  1  0
 30 31  2  0
 31  5  1  0
 17  9  2  0
 28 23  1  0
 16 12  1  0
 29 15  1  0
  1 32  1  0
  1 33  1  0
  1 34  1  0
  2 35  1  0
  6 36  1  0
  7 37  1  0
 10 38  1  0
 11 39  1  0
 18 40  1  0
 18 41  1  0
 24 42  1  0
 24 43  1  0
 25 44  1  0
 25 45  1  0
 26 46  1  0
 27 47  1  0
 27 48  1  0
 28 49  1  0
 28 50  1  0
 29 51  1  0
 29 52  1  0
 30 53  1  0
 31 54  1  0
M  END
>  <Energy>  (263) 
147.40813958076586

>  <compound_id>  (263) 
2499

>  <target_id>  (263) 
1

>  <reference_id>  (263) 
116

>  <inspiration_ids>  (263) 
[168, 116]

>  <energy_score>  (263) 
146.3510242624236

>  <distance_score>  (263) 
1.4843759653549324

>  <path>  (263) 
/opt/xchem-fragalysis-2/maxwin/BulkDock/SCRATCH/505736/C2499-P116/C2499-P116.minimised.mol

>  <scratch_subdir>  (263) 
/opt/xchem-fragalysis-2/maxwin/BulkDock/SCRATCH/505736/C2499-P116

>  <fragmenstein_runtime>  (263) 
24.933969497680664

>  <fragmenstein_outcome>  (263) 
too moved

>  <fragmenstein_mode>  (263) 
expansion

>  <fragmenstein_error>  (263) 


$$$$
C2500-P168
     RDKit          3D

 53 57  0  0  0  0  0  0  0  0999 V2000
    0.2766   -2.1908   34.0420 O   0  0  0  0  0  0  0  0  0  0  0  0
   -0.1626   -3.2578   34.4172 C   0  0  0  0  0  0  0  0  0  0  0  0
   -0.8798   -3.4362   35.7430 C   0  0  0  0  0  0  0  0  0  0  0  0
   -1.7097   -2.2912   36.2748 C   0  0  0  0  0  0  0  0  0  0  0  0
   -2.9905   -1.8212   35.5733 C   0  0  0  0  0  0  0  0  0  0  0  0
   -3.0955   -1.6045   34.1944 C   0  0  0  0  0  0  0  0  0  0  0  0
   -4.2648   -1.0692   33.6305 C   0  0  0  0  0  0  0  0  0  0  0  0
   -5.3508   -0.7202   34.4290 C   0  0  0  0  0  0  0  0  0  0  0  0
   -5.2659   -0.9023   35.8029 C   0  0  0  0  0  0  0  0  0  0  0  0
   -4.0967   -1.4359   36.3652 C   0  0  0  0  0  0  0  0  0  0  0  0
   -0.4345   -5.0751   36.1722 S   0  0  0  0  0  0  0  0  0  0  0  0
   -1.8180   -5.8621   36.4492 O   0  0  0  0  0  0  0  0  0  0  0  0
    0.6058   -5.2534   37.4631 N   0  0  0  0  0  0  0  0  0  0  0  0
    1.6245   -4.2143   37.7155 C   0  0  0  0  0  0  0  0  0  0  0  0
    1.2407   -3.1632   38.7912 C   0  0  0  0  0  0  0  0  0  0  0  0
   -0.2023   -3.0323   38.9959 N   0  0  0  0  0  0  0  0  0  0  0  0
   -0.8081   -4.3378   39.3212 C   0  0  0  0  0  0  0  0  0  0  0  0
   -0.0381   -5.5559   38.7562 C   0  0  0  0  0  0  0  0  0  0  0  0
    0.1573   -5.6234   34.6936 N   0  0  0  0  0  0  0  0  0  0  0  0
   -0.1305   -6.9759   34.1550 C   0  0  0  0  0  0  0  0  0  0  0  0
   -0.9739   -6.9434   32.8532 C   0  0  0  0  0  0  0  0  0  0  0  0
   -1.2258   -8.1833   32.1195 N   0  0  0  0  0  0  0  0  0  0  0  0
   -0.6007   -8.0507   30.8377 N   0  0  0  0  0  0  0  0  0  0  0  0
    0.2994   -6.9377   30.8805 N   0  0  0  0  0  0  0  0  0  0  0  0
   -0.3541   -6.0168   31.7952 C   0  0  0  0  0  0  0  0  0  0  0  0
    0.5160   -4.8961   32.3827 C   0  0  0  0  0  0  0  0  0  0  0  0
   -0.1736   -4.5864   33.6846 C   0  0  0  0  0  0  0  0  0  0  0  0
   -2.0105   -2.6020   37.2783 H   0  0  0  0  0  0  0  0  0  0  0  0
   -1.0511   -1.4220   36.3889 H   0  0  0  0  0  0  0  0  0  0  0  0
   -2.2623   -1.8200   33.5335 H   0  0  0  0  0  0  0  0  0  0  0  0
   -4.3166   -0.9149   32.5590 H   0  0  0  0  0  0  0  0  0  0  0  0
   -6.2447   -0.2930   33.9828 H   0  0  0  0  0  0  0  0  0  0  0  0
   -6.0922   -0.6093   36.4441 H   0  0  0  0  0  0  0  0  0  0  0  0
   -4.0426   -1.5369   37.4486 H   0  0  0  0  0  0  0  0  0  0  0  0
    1.8688   -3.7020   36.7770 H   0  0  0  0  0  0  0  0  0  0  0  0
    2.5516   -4.7087   38.0314 H   0  0  0  0  0  0  0  0  0  0  0  0
    1.7118   -3.4340   39.7448 H   0  0  0  0  0  0  0  0  0  0  0  0
    1.6512   -2.1897   38.5015 H   0  0  0  0  0  0  0  0  0  0  0  0
   -0.3949   -2.3740   39.7507 H   0  0  0  0  0  0  0  0  0  0  0  0
   -0.8745   -4.4451   40.4104 H   0  0  0  0  0  0  0  0  0  0  0  0
   -1.8331   -4.3362   38.9378 H   0  0  0  0  0  0  0  0  0  0  0  0
    0.7351   -5.8640   39.4732 H   0  0  0  0  0  0  0  0  0  0  0  0
   -0.7077   -6.4178   38.6696 H   0  0  0  0  0  0  0  0  0  0  0  0
   -0.6233   -7.6017   34.9075 H   0  0  0  0  0  0  0  0  0  0  0  0
    0.8365   -7.4467   33.9464 H   0  0  0  0  0  0  0  0  0  0  0  0
   -1.9552   -6.5738   33.1437 H   0  0  0  0  0  0  0  0  0  0  0  0
   -0.8907   -8.9841   32.6518 H   0  0  0  0  0  0  0  0  0  0  0  0
   -0.1280   -8.9245   30.5360 H   0  0  0  0  0  0  0  0  0  0  0  0
    0.3783   -6.5016   29.9582 H   0  0  0  0  0  0  0  0  0  0  0  0
   -1.1702   -5.5223   31.2599 H   0  0  0  0  0  0  0  0  0  0  0  0
    0.5443   -4.0308   31.7119 H   0  0  0  0  0  0  0  0  0  0  0  0
    1.5538   -5.2159   32.5383 H   0  0  0  0  0  0  0  0  0  0  0  0
   -1.2512   -4.6100   33.4660 H   0  0  0  0  0  0  0  0  0  0  0  0
  1  2  2  0
  2  3  1  0
  3  4  1  0
  4  5  1  0
  5  6  2  0
  6  7  1  0
  7  8  2  0
  8  9  1  0
  9 10  2  0
  3 11  2  0
 11 12  2  0
 11 13  1  0
 13 14  1  0
 14 15  1  0
 15 16  1  0
 16 17  1  0
 17 18  1  0
 11 19  1  0
 19 20  1  0
 20 21  1  0
 21 22  1  0
 22 23  1  0
 23 24  1  0
 24 25  1  0
 25 26  1  0
 26 27  1  0
 27  2  1  0
 10  5  1  0
 18 13  1  0
 27 19  1  0
 25 21  1  0
  4 28  1  0
  4 29  1  0
  6 30  1  0
  7 31  1  0
  8 32  1  0
  9 33  1  0
 10 34  1  0
 14 35  1  0
 14 36  1  0
 15 37  1  0
 15 38  1  0
 16 39  1  0
 17 40  1  0
 17 41  1  0
 18 42  1  0
 18 43  1  0
 20 44  1  0
 20 45  1  0
 21 46  1  0
 22 47  1  0
 23 48  1  0
 24 49  1  0
 25 50  1  0
 26 51  1  0
 26 52  1  0
 27 53  1  0
M  END
>  <Energy>  (264) 
85.637077526698775

>  <compound_id>  (264) 
2500

>  <target_id>  (264) 
1

>  <reference_id>  (264) 
168

>  <inspiration_ids>  (264) 
[168, 121]

>  <energy_score>  (264) 
-57.21820011528034

>  <distance_score>  (264) 
1.656645207936229

>  <path>  (264) 
/opt/xchem-fragalysis-2/maxwin/BulkDock/SCRATCH/505736/C2500-P168/C2500-P168.minimised.mol

>  <scratch_subdir>  (264) 
/opt/xchem-fragalysis-2/maxwin/BulkDock/SCRATCH/505736/C2500-P168

>  <fragmenstein_runtime>  (264) 
13.211313009262085

>  <fragmenstein_outcome>  (264) 
too moved

>  <fragmenstein_mode>  (264) 
expansion

>  <fragmenstein_error>  (264) 


$$$$
C2500-P121
     RDKit          3D

 53 57  0  0  0  0  0  0  0  0999 V2000
   -0.9835   -2.0349   33.1368 O   0  0  0  0  0  0  0  0  0  0  0  0
   -0.4664   -2.9310   33.7827 C   0  0  0  0  0  0  0  0  0  0  0  0
   -0.8863   -3.2261   35.2185 C   0  0  0  0  0  0  0  0  0  0  0  0
   -1.9304   -2.3594   35.8915 C   0  0  0  0  0  0  0  0  0  0  0  0
   -3.2863   -1.9390   35.3217 C   0  0  0  0  0  0  0  0  0  0  0  0
   -3.7739   -2.2155   34.0431 C   0  0  0  0  0  0  0  0  0  0  0  0
   -4.9952   -1.6855   33.5945 C   0  0  0  0  0  0  0  0  0  0  0  0
   -5.7669   -0.8706   34.4172 C   0  0  0  0  0  0  0  0  0  0  0  0
   -5.3263   -0.6056   35.7060 C   0  0  0  0  0  0  0  0  0  0  0  0
   -4.1040   -1.1326   36.1483 C   0  0  0  0  0  0  0  0  0  0  0  0
    0.2939   -4.3806   35.7699 S   0  0  0  0  0  0  0  0  0  0  0  0
   -0.5108   -5.7373   36.1687 O   0  0  0  0  0  0  0  0  0  0  0  0
    1.4140   -3.8693   36.8877 N   0  0  0  0  0  0  0  0  0  0  0  0
    2.0679   -2.5635   36.7075 C   0  0  0  0  0  0  0  0  0  0  0  0
    1.5782   -1.4468   37.6658 C   0  0  0  0  0  0  0  0  0  0  0  0
    0.2565   -1.7040   38.2357 N   0  0  0  0  0  0  0  0  0  0  0  0
    0.2811   -2.9846   38.9603 C   0  0  0  0  0  0  0  0  0  0  0  0
    1.2167   -4.0449   38.3281 C   0  0  0  0  0  0  0  0  0  0  0  0
    1.0594   -4.7539   34.3299 N   0  0  0  0  0  0  0  0  0  0  0  0
    0.8978   -6.1333   33.8554 C   0  0  0  0  0  0  0  0  0  0  0  0
   -0.4828   -6.3623   33.2142 C   0  0  0  0  0  0  0  0  0  0  0  0
   -0.7646   -7.7348   32.7439 N   0  0  0  0  0  0  0  0  0  0  0  0
   -1.2397   -7.5778   31.4006 N   0  0  0  0  0  0  0  0  0  0  0  0
   -0.5165   -6.4638   30.9083 N   0  0  0  0  0  0  0  0  0  0  0  0
   -0.6106   -5.4819   31.9778 C   0  0  0  0  0  0  0  0  0  0  0  0
    0.4476   -4.3889   31.8914 C   0  0  0  0  0  0  0  0  0  0  0  0
    0.7210   -3.7816   33.2718 C   0  0  0  0  0  0  0  0  0  0  0  0
   -2.1356   -2.8519   36.8495 H   0  0  0  0  0  0  0  0  0  0  0  0
   -1.4034   -1.4228   36.1150 H   0  0  0  0  0  0  0  0  0  0  0  0
   -3.2052   -2.8301   33.3560 H   0  0  0  0  0  0  0  0  0  0  0  0
   -5.3410   -1.9106   32.5898 H   0  0  0  0  0  0  0  0  0  0  0  0
   -6.6972   -0.4422   34.0520 H   0  0  0  0  0  0  0  0  0  0  0  0
   -5.9107    0.0356   36.3604 H   0  0  0  0  0  0  0  0  0  0  0  0
   -3.7643   -0.8773   37.1518 H   0  0  0  0  0  0  0  0  0  0  0  0
    1.9423   -2.2188   35.6741 H   0  0  0  0  0  0  0  0  0  0  0  0
    3.1494   -2.6906   36.8430 H   0  0  0  0  0  0  0  0  0  0  0  0
    1.5512   -0.4971   37.1199 H   0  0  0  0  0  0  0  0  0  0  0  0
    2.3045   -1.3207   38.4792 H   0  0  0  0  0  0  0  0  0  0  0  0
    0.0071   -0.9585   38.8859 H   0  0  0  0  0  0  0  0  0  0  0  0
    0.6058   -2.8105   39.9935 H   0  0  0  0  0  0  0  0  0  0  0  0
   -0.7528   -3.3072   39.0103 H   0  0  0  0  0  0  0  0  0  0  0  0
    2.2011   -3.9413   38.8101 H   0  0  0  0  0  0  0  0  0  0  0  0
    0.9505   -5.0672   38.5632 H   0  0  0  0  0  0  0  0  0  0  0  0
    1.0782   -6.8395   34.6747 H   0  0  0  0  0  0  0  0  0  0  0  0
    1.7046   -6.2763   33.1320 H   0  0  0  0  0  0  0  0  0  0  0  0
   -1.2644   -6.1245   33.9265 H   0  0  0  0  0  0  0  0  0  0  0  0
    0.1705   -8.1571   32.6682 H   0  0  0  0  0  0  0  0  0  0  0  0
   -2.2535   -7.4258   31.4186 H   0  0  0  0  0  0  0  0  0  0  0  0
   -0.7712   -6.1321   29.9811 H   0  0  0  0  0  0  0  0  0  0  0  0
   -1.5975   -5.0099   31.9637 H   0  0  0  0  0  0  0  0  0  0  0  0
    0.1163   -3.6177   31.1848 H   0  0  0  0  0  0  0  0  0  0  0  0
    1.3860   -4.7857   31.4803 H   0  0  0  0  0  0  0  0  0  0  0  0
    1.5645   -3.0846   33.1908 H   0  0  0  0  0  0  0  0  0  0  0  0
  1  2  2  0
  2  3  1  0
  3  4  1  0
  4  5  1  0
  5  6  2  0
  6  7  1  0
  7  8  2  0
  8  9  1  0
  9 10  2  0
  3 11  2  0
 11 12  2  0
 11 13  1  0
 13 14  1  0
 14 15  1  0
 15 16  1  0
 16 17  1  0
 17 18  1  0
 11 19  1  0
 19 20  1  0
 20 21  1  0
 21 22  1  0
 22 23  1  0
 23 24  1  0
 24 25  1  0
 25 26  1  0
 26 27  1  0
 27  2  1  0
 10  5  1  0
 18 13  1  0
 27 19  1  0
 25 21  1  0
  4 28  1  0
  4 29  1  0
  6 30  1  0
  7 31  1  0
  8 32  1  0
  9 33  1  0
 10 34  1  0
 14 35  1  0
 14 36  1  0
 15 37  1  0
 15 38  1  0
 16 39  1  0
 17 40  1  0
 17 41  1  0
 18 42  1  0
 18 43  1  0
 20 44  1  0
 20 45  1  0
 21 46  1  0
 22 47  1  0
 23 48  1  0
 24 49  1  0
 25 50  1  0
 26 51  1  0
 26 52  1  0
 27 53  1  0
M  END
>  <Energy>  (265) 
78.482630647744045

>  <compound_id>  (265) 
2500

>  <target_id>  (265) 
1

>  <reference_id>  (265) 
121

>  <inspiration_ids>  (265) 
[168, 121]

>  <energy_score>  (265) 
-64.37264699423588

>  <distance_score>  (265) 
1.942048016556671

>  <path>  (265) 
/opt/xchem-fragalysis-2/maxwin/BulkDock/SCRATCH/505736/C2500-P121/C2500-P121.minimised.mol

>  <scratch_subdir>  (265) 
/opt/xchem-fragalysis-2/maxwin/BulkDock/SCRATCH/505736/C2500-P121

>  <fragmenstein_runtime>  (265) 
13.002139568328857

>  <fragmenstein_outcome>  (265) 
too moved

>  <fragmenstein_mode>  (265) 
expansion

>  <fragmenstein_error>  (265) 


$$$$
C2501-P168
     RDKit          3D

 69 73  0  0  0  0  0  0  0  0999 V2000
   -0.3914   -3.0609   33.2169 O   0  0  0  0  0  0  0  0  0  0  0  0
    0.4388   -3.8435   32.8443 C   0  0  0  0  0  0  0  0  0  0  0  0
    0.5912   -5.2065   33.5029 C   0  0  0  0  0  0  0  0  0  0  0  0
    0.8055   -4.8952   34.9837 C   0  0  0  0  0  0  0  0  0  0  0  0
    0.9363   -6.1368   35.7571 N   0  0  0  0  0  0  0  0  0  0  0  0
    1.6531   -6.0634   37.2580 S   0  0  0  0  0  0  0  0  0  0  0  0
    2.9932   -5.5661   37.0497 O   0  0  0  0  0  0  0  0  0  0  0  0
    1.4034   -7.2932   37.9654 O   0  0  0  0  0  0  0  0  0  0  0  0
    0.7553   -4.8337   37.9636 N   0  0  0  0  0  0  0  0  0  0  0  0
    1.4693   -4.1077   39.0614 C   0  0  0  0  0  0  0  0  0  0  0  0
    0.5117   -3.1864   39.8506 C   0  0  0  0  0  0  0  0  0  0  0  0
   -0.5968   -2.6720   39.0273 N   0  0  0  0  0  0  0  0  0  0  0  0
   -1.4173   -3.8109   38.5592 C   0  0  0  0  0  0  0  0  0  0  0  0
   -0.6503   -5.1366   38.3370 C   0  0  0  0  0  0  0  0  0  0  0  0
    0.0517   -7.2534   35.4129 C   0  0  0  0  0  0  0  0  0  0  0  0
   -1.1038   -6.8106   34.5137 C   0  0  0  0  0  0  0  0  0  0  0  0
   -1.8659   -7.9333   33.9538 N   0  0  0  0  0  0  0  0  0  0  0  0
   -1.5140   -8.0183   32.5641 N   0  0  0  0  0  0  0  0  0  0  0  0
   -0.4173   -7.1567   32.3241 N   0  0  0  0  0  0  0  0  0  0  0  0
   -0.6471   -6.0525   33.2771 C   0  0  0  0  0  0  0  0  0  0  0  0
    1.4631   -3.7084   31.8761 N   0  0  0  0  0  0  0  0  0  0  0  0
    0.9494   -4.1494   30.4973 C   0  0  0  0  0  0  0  0  0  0  0  0
    2.0048   -4.6421   29.4875 C   0  0  0  0  0  0  0  0  0  0  0  0
    2.9560   -3.5148   29.1180 C   0  0  0  0  0  0  0  0  0  0  0  0
    3.2609   -2.7876   30.4176 C   0  0  0  0  0  0  0  0  0  0  0  0
    4.0508   -1.5112   30.3482 C   0  0  0  0  0  0  0  0  0  0  0  0
    3.7599   -0.4993   29.4310 C   0  0  0  0  0  0  0  0  0  0  0  0
    4.4365    0.7191   29.4972 C   0  0  0  0  0  0  0  0  0  0  0  0
    5.4151    0.9444   30.4745 C   0  0  0  0  0  0  0  0  0  0  0  0
    6.1104    2.2768   30.5602 C   0  0  0  0  0  0  0  0  0  0  0  0
    5.3662    3.1805   31.3651 O   0  0  0  0  0  0  0  0  0  0  0  0
    5.6973   -0.0630   31.4010 C   0  0  0  0  0  0  0  0  0  0  0  0
    5.0241   -1.2796   31.3356 C   0  0  0  0  0  0  0  0  0  0  0  0
    1.9088   -2.5278   31.0952 C   0  0  0  0  0  0  0  0  0  0  0  0
    1.4865   -5.7211   33.1266 H   0  0  0  0  0  0  0  0  0  0  0  0
   -0.0301   -4.3103   35.3891 H   0  0  0  0  0  0  0  0  0  0  0  0
    1.7114   -4.2867   35.0951 H   0  0  0  0  0  0  0  0  0  0  0  0
    1.9416   -4.8161   39.7508 H   0  0  0  0  0  0  0  0  0  0  0  0
    2.2475   -3.4885   38.5998 H   0  0  0  0  0  0  0  0  0  0  0  0
    0.0995   -3.7267   40.7126 H   0  0  0  0  0  0  0  0  0  0  0  0
    1.0790   -2.3449   40.2638 H   0  0  0  0  0  0  0  0  0  0  0  0
   -0.1750   -2.2537   38.1947 H   0  0  0  0  0  0  0  0  0  0  0  0
   -1.8943   -3.5101   37.6187 H   0  0  0  0  0  0  0  0  0  0  0  0
   -2.2280   -3.9816   39.2752 H   0  0  0  0  0  0  0  0  0  0  0  0
   -1.1538   -5.7037   37.5506 H   0  0  0  0  0  0  0  0  0  0  0  0
   -0.6617   -5.7367   39.2549 H   0  0  0  0  0  0  0  0  0  0  0  0
   -0.3655   -7.7302   36.3056 H   0  0  0  0  0  0  0  0  0  0  0  0
    0.6772   -7.9914   34.9093 H   0  0  0  0  0  0  0  0  0  0  0  0
   -1.7646   -6.1935   35.1250 H   0  0  0  0  0  0  0  0  0  0  0  0
   -1.6415   -8.8075   34.4526 H   0  0  0  0  0  0  0  0  0  0  0  0
   -1.3432   -8.9853   32.2577 H   0  0  0  0  0  0  0  0  0  0  0  0
   -0.4538   -6.8053   31.3685 H   0  0  0  0  0  0  0  0  0  0  0  0
   -1.4663   -5.4392   32.8879 H   0  0  0  0  0  0  0  0  0  0  0  0
    0.1700   -3.4984   30.0621 H   0  0  0  0  0  0  0  0  0  0  0  0
    0.3578   -5.0475   30.7072 H   0  0  0  0  0  0  0  0  0  0  0  0
    2.5714   -5.4649   29.9379 H   0  0  0  0  0  0  0  0  0  0  0  0
    1.5177   -5.0374   28.5893 H   0  0  0  0  0  0  0  0  0  0  0  0
    2.4675   -2.8541   28.3925 H   0  0  0  0  0  0  0  0  0  0  0  0
    3.8654   -3.9004   28.6448 H   0  0  0  0  0  0  0  0  0  0  0  0
    3.8373   -3.4910   31.0385 H   0  0  0  0  0  0  0  0  0  0  0  0
    2.9872   -0.6243   28.6766 H   0  0  0  0  0  0  0  0  0  0  0  0
    4.1871    1.5049   28.7859 H   0  0  0  0  0  0  0  0  0  0  0  0
    7.1103    2.1672   30.9930 H   0  0  0  0  0  0  0  0  0  0  0  0
    6.2339    2.7153   29.5643 H   0  0  0  0  0  0  0  0  0  0  0  0
    4.6005    2.7003   31.7246 H   0  0  0  0  0  0  0  0  0  0  0  0
    6.4358    0.0990   32.1835 H   0  0  0  0  0  0  0  0  0  0  0  0
    5.2470   -2.0382   32.0841 H   0  0  0  0  0  0  0  0  0  0  0  0
    2.1030   -1.8146   31.9145 H   0  0  0  0  0  0  0  0  0  0  0  0
    1.1624   -1.9472   30.5245 H   0  0  0  0  0  0  0  0  0  0  0  0
  1  2  2  0
  2  3  1  0
  3  4  1  0
  4  5  1  0
  5  6  1  0
  6  7  2  0
  6  8  2  0
  6  9  1  0
  9 10  1  0
 10 11  1  0
 11 12  1  0
 12 13  1  0
 13 14  1  0
  5 15  1  0
 15 16  1  0
 16 17  1  0
 17 18  1  0
 18 19  1  0
 19 20  1  0
  2 21  1  0
 21 22  1  0
 22 23  1  0
 23 24  1  0
 24 25  1  0
 25 26  1  0
 26 27  2  0
 27 28  1  0
 28 29  2  0
 29 30  1  0
 30 31  1  0
 29 32  1  0
 32 33  2  0
 25 34  1  0
 20  3  1  0
 34 21  1  0
 14  9  1  0
 20 16  1  0
 33 26  1  0
  3 35  1  0
  4 36  1  0
  4 37  1  0
 10 38  1  0
 10 39  1  0
 11 40  1  0
 11 41  1  0
 12 42  1  0
 13 43  1  0
 13 44  1  0
 14 45  1  0
 14 46  1  0
 15 47  1  0
 15 48  1  0
 16 49  1  0
 17 50  1  0
 18 51  1  0
 19 52  1  0
 20 53  1  0
 22 54  1  0
 22 55  1  0
 23 56  1  0
 23 57  1  0
 24 58  1  0
 24 59  1  0
 25 60  1  0
 27 61  1  0
 28 62  1  0
 30 63  1  0
 30 64  1  0
 31 65  1  0
 32 66  1  0
 33 67  1  0
 34 68  1  0
 34 69  1  0
M  END
>  <Energy>  (266) 
48.773204709789454

>  <compound_id>  (266) 
2501

>  <target_id>  (266) 
1

>  <reference_id>  (266) 
168

>  <inspiration_ids>  (266) 
[168, 129]

>  <energy_score>  (266) 
-20.609962706394754

>  <distance_score>  (266) 
2.418223895461672

>  <path>  (266) 
/opt/xchem-fragalysis-2/maxwin/BulkDock/SCRATCH/505736/C2501-P168/C2501-P168.minimised.mol

>  <scratch_subdir>  (266) 
/opt/xchem-fragalysis-2/maxwin/BulkDock/SCRATCH/505736/C2501-P168

>  <fragmenstein_runtime>  (266) 
8.225266933441162

>  <fragmenstein_outcome>  (266) 
too moved

>  <fragmenstein_mode>  (266) 
expansion

>  <fragmenstein_error>  (266) 


$$$$
C2501-P129
     RDKit          3D

 69 73  0  0  0  0  0  0  0  0999 V2000
   -0.0992   -2.6888   34.1952 O   0  0  0  0  0  0  0  0  0  0  0  0
    0.3862   -3.6077   33.5900 C   0  0  0  0  0  0  0  0  0  0  0  0
    0.2771   -5.0370   34.1605 C   0  0  0  0  0  0  0  0  0  0  0  0
   -0.1309   -4.8852   35.6300 C   0  0  0  0  0  0  0  0  0  0  0  0
   -0.1148   -6.1794   36.3704 N   0  0  0  0  0  0  0  0  0  0  0  0
    1.0641   -6.3258   37.5561 S   0  0  0  0  0  0  0  0  0  0  0  0
    2.3431   -6.0989   36.9227 O   0  0  0  0  0  0  0  0  0  0  0  0
    0.8080   -7.5055   38.3417 O   0  0  0  0  0  0  0  0  0  0  0  0
    0.6602   -4.9843   38.4750 N   0  0  0  0  0  0  0  0  0  0  0  0
    1.7314   -4.4505   39.3557 C   0  0  0  0  0  0  0  0  0  0  0  0
    1.1697   -3.3841   40.3273 C   0  0  0  0  0  0  0  0  0  0  0  0
    0.0130   -2.6470   39.7827 N   0  0  0  0  0  0  0  0  0  0  0  0
   -1.0954   -3.5974   39.5232 C   0  0  0  0  0  0  0  0  0  0  0  0
   -0.6562   -5.0337   39.1653 C   0  0  0  0  0  0  0  0  0  0  0  0
   -0.3317   -7.3834   35.5304 C   0  0  0  0  0  0  0  0  0  0  0  0
   -1.2990   -7.0069   34.4015 C   0  0  0  0  0  0  0  0  0  0  0  0
   -1.6993   -8.0913   33.5065 N   0  0  0  0  0  0  0  0  0  0  0  0
   -1.0147   -7.8921   32.2754 N   0  0  0  0  0  0  0  0  0  0  0  0
   -0.0268   -6.8976   32.4907 N   0  0  0  0  0  0  0  0  0  0  0  0
   -0.6772   -5.9871   33.4578 C   0  0  0  0  0  0  0  0  0  0  0  0
    1.1780   -3.6200   32.4079 N   0  0  0  0  0  0  0  0  0  0  0  0
    0.2761   -3.7494   31.1613 C   0  0  0  0  0  0  0  0  0  0  0  0
    0.9312   -4.3797   29.9148 C   0  0  0  0  0  0  0  0  0  0  0  0
    2.0309   -3.4789   29.3792 C   0  0  0  0  0  0  0  0  0  0  0  0
    2.7968   -2.9846   30.5963 C   0  0  0  0  0  0  0  0  0  0  0  0
    3.8292   -1.9082   30.3929 C   0  0  0  0  0  0  0  0  0  0  0  0
    3.6300   -0.8245   29.5348 C   0  0  0  0  0  0  0  0  0  0  0  0
    4.5625    0.2128   29.4875 C   0  0  0  0  0  0  0  0  0  0  0  0
    5.7092    0.1837   30.2918 C   0  0  0  0  0  0  0  0  0  0  0  0
    6.6879    1.3269   30.2636 C   0  0  0  0  0  0  0  0  0  0  0  0
    6.3262    2.3218   31.2111 O   0  0  0  0  0  0  0  0  0  0  0  0
    5.9041   -0.8938   31.1602 C   0  0  0  0  0  0  0  0  0  0  0  0
    4.9758   -1.9307   31.2063 C   0  0  0  0  0  0  0  0  0  0  0  0
    1.7489   -2.5029   31.6107 C   0  0  0  0  0  0  0  0  0  0  0  0
    1.2953   -5.4545   34.1480 H   0  0  0  0  0  0  0  0  0  0  0  0
   -1.1455   -4.4747   35.7198 H   0  0  0  0  0  0  0  0  0  0  0  0
    0.5255   -4.1540   36.1166 H   0  0  0  0  0  0  0  0  0  0  0  0
    2.2016   -5.2566   39.9292 H   0  0  0  0  0  0  0  0  0  0  0  0
    2.4886   -3.9810   38.7172 H   0  0  0  0  0  0  0  0  0  0  0  0
    0.8768   -3.8601   41.2720 H   0  0  0  0  0  0  0  0  0  0  0  0
    1.9649   -2.6742   40.5811 H   0  0  0  0  0  0  0  0  0  0  0  0
    0.3014   -2.2892   38.8684 H   0  0  0  0  0  0  0  0  0  0  0  0
   -1.6956   -3.1885   38.7013 H   0  0  0  0  0  0  0  0  0  0  0  0
   -1.7554   -3.6314   40.3975 H   0  0  0  0  0  0  0  0  0  0  0  0
   -1.4183   -5.4843   38.5273 H   0  0  0  0  0  0  0  0  0  0  0  0
   -0.5673   -5.6408   40.0743 H   0  0  0  0  0  0  0  0  0  0  0  0
   -0.7764   -8.1697   36.1485 H   0  0  0  0  0  0  0  0  0  0  0  0
    0.6235   -7.7492   35.1373 H   0  0  0  0  0  0  0  0  0  0  0  0
   -2.1948   -6.6068   34.8732 H   0  0  0  0  0  0  0  0  0  0  0  0
   -1.5000   -8.9886   33.9703 H   0  0  0  0  0  0  0  0  0  0  0  0
   -0.6543   -8.7677   31.8739 H   0  0  0  0  0  0  0  0  0  0  0  0
    0.1924   -6.4066   31.6288 H   0  0  0  0  0  0  0  0  0  0  0  0
   -1.4746   -5.4264   32.9609 H   0  0  0  0  0  0  0  0  0  0  0  0
   -0.3396   -2.8583   30.9419 H   0  0  0  0  0  0  0  0  0  0  0  0
   -0.5179   -4.4463   31.4327 H   0  0  0  0  0  0  0  0  0  0  0  0
    1.3591   -5.3551   30.1727 H   0  0  0  0  0  0  0  0  0  0  0  0
    0.1731   -4.5447   29.1434 H   0  0  0  0  0  0  0  0  0  0  0  0
    1.5721   -2.6520   28.8254 H   0  0  0  0  0  0  0  0  0  0  0  0
    2.6812   -4.0155   28.6799 H   0  0  0  0  0  0  0  0  0  0  0  0
    3.3183   -3.8596   31.0142 H   0  0  0  0  0  0  0  0  0  0  0  0
    2.7395   -0.7472   28.9160 H   0  0  0  0  0  0  0  0  0  0  0  0
    4.3828    1.0578   28.8247 H   0  0  0  0  0  0  0  0  0  0  0  0
    7.7002    0.9779   30.4934 H   0  0  0  0  0  0  0  0  0  0  0  0
    6.7208    1.7865   29.2701 H   0  0  0  0  0  0  0  0  0  0  0  0
    5.5192    2.0235   31.6650 H   0  0  0  0  0  0  0  0  0  0  0  0
    6.7746   -0.9247   31.8124 H   0  0  0  0  0  0  0  0  0  0  0  0
    5.1391   -2.7457   31.9096 H   0  0  0  0  0  0  0  0  0  0  0  0
    2.3078   -1.9739   32.4017 H   0  0  0  0  0  0  0  0  0  0  0  0
    1.0837   -1.6814   31.2902 H   0  0  0  0  0  0  0  0  0  0  0  0
  1  2  2  0
  2  3  1  0
  3  4  1  0
  4  5  1  0
  5  6  1  0
  6  7  2  0
  6  8  2  0
  6  9  1  0
  9 10  1  0
 10 11  1  0
 11 12  1  0
 12 13  1  0
 13 14  1  0
  5 15  1  0
 15 16  1  0
 16 17  1  0
 17 18  1  0
 18 19  1  0
 19 20  1  0
  2 21  1  0
 21 22  1  0
 22 23  1  0
 23 24  1  0
 24 25  1  0
 25 26  1  0
 26 27  2  0
 27 28  1  0
 28 29  2  0
 29 30  1  0
 30 31  1  0
 29 32  1  0
 32 33  2  0
 25 34  1  0
 20  3  1  0
 34 21  1  0
 14  9  1  0
 20 16  1  0
 33 26  1  0
  3 35  1  0
  4 36  1  0
  4 37  1  0
 10 38  1  0
 10 39  1  0
 11 40  1  0
 11 41  1  0
 12 42  1  0
 13 43  1  0
 13 44  1  0
 14 45  1  0
 14 46  1  0
 15 47  1  0
 15 48  1  0
 16 49  1  0
 17 50  1  0
 18 51  1  0
 19 52  1  0
 20 53  1  0
 22 54  1  0
 22 55  1  0
 23 56  1  0
 23 57  1  0
 24 58  1  0
 24 59  1  0
 25 60  1  0
 27 61  1  0
 28 62  1  0
 30 63  1  0
 30 64  1  0
 31 65  1  0
 32 66  1  0
 33 67  1  0
 34 68  1  0
 34 69  1  0
M  END
>  <Energy>  (267) 
48.925433489150116

>  <compound_id>  (267) 
2501

>  <target_id>  (267) 
1

>  <reference_id>  (267) 
129

>  <inspiration_ids>  (267) 
[168, 129]

>  <energy_score>  (267) 
-20.45773392703154

>  <distance_score>  (267) 
2.3384677991353597

>  <path>  (267) 
/opt/xchem-fragalysis-2/maxwin/BulkDock/SCRATCH/505736/C2501-P129/C2501-P129.minimised.mol

>  <scratch_subdir>  (267) 
/opt/xchem-fragalysis-2/maxwin/BulkDock/SCRATCH/505736/C2501-P129

>  <fragmenstein_runtime>  (267) 
8.299829006195068

>  <fragmenstein_outcome>  (267) 
too moved

>  <fragmenstein_mode>  (267) 
expansion

>  <fragmenstein_error>  (267) 


$$$$
C2505-P168
     RDKit          3D

 55 59  0  0  0  0  0  0  0  0999 V2000
    3.5104    0.7866   34.1472 C   0  0  0  0  0  0  0  0  0  0  0  0
    2.7288    0.1658   32.9863 C   0  0  0  0  0  0  0  0  0  0  0  0
    2.5908   -1.2571   33.2886 N   0  0  0  0  0  0  0  0  0  0  0  0
    3.7186   -1.5569   34.2049 C   0  0  0  0  0  0  0  0  0  0  0  0
    3.5542   -2.8513   34.9049 C   0  0  0  0  0  0  0  0  0  0  0  0
    4.2872   -3.9340   34.7784 N   0  0  0  0  0  0  0  0  0  0  0  0
    3.5598   -4.9604   35.3150 N   0  0  0  0  0  0  0  0  0  0  0  0
    2.4324   -4.4369   35.7549 C   0  0  0  0  0  0  0  0  0  0  0  0
    1.1219   -5.1894   35.9862 C   0  0  0  0  0  0  0  0  0  0  0  0
    0.1626   -4.6373   36.9559 N   0  0  0  0  0  0  0  0  0  0  0  0
    0.8079   -4.3069   38.2402 C   0  0  0  0  0  0  0  0  0  0  0  0
   -0.1893   -3.8702   39.3406 C   0  0  0  0  0  0  0  0  0  0  0  0
   -1.4880   -3.3739   38.8583 N   0  0  0  0  0  0  0  0  0  0  0  0
   -1.3082   -2.6636   37.5921 C   0  0  0  0  0  0  0  0  0  0  0  0
   -0.6648   -3.5253   36.4803 C   0  0  0  0  0  0  0  0  0  0  0  0
    0.5473   -5.5779   34.6893 N   0  0  0  0  0  0  0  0  0  0  0  0
    0.4712   -4.5778   33.6223 C   0  0  0  0  0  0  0  0  0  0  0  0
    0.6462   -5.2588   32.2606 C   0  0  0  0  0  0  0  0  0  0  0  0
   -0.4807   -6.2480   32.1204 C   0  0  0  0  0  0  0  0  0  0  0  0
   -0.4385   -7.1584   30.9744 N   0  0  0  0  0  0  0  0  0  0  0  0
   -1.2767   -8.2702   31.3926 N   0  0  0  0  0  0  0  0  0  0  0  0
   -1.5626   -8.0791   32.8115 N   0  0  0  0  0  0  0  0  0  0  0  0
   -0.4767   -7.2284   33.2714 C   0  0  0  0  0  0  0  0  0  0  0  0
   -0.5375   -6.5582   34.6505 C   0  0  0  0  0  0  0  0  0  0  0  0
    2.3939   -3.0680   35.6033 O   0  0  0  0  0  0  0  0  0  0  0  0
    3.7518   -0.3521   35.1188 C   0  0  0  0  0  0  0  0  0  0  0  0
    4.4648    1.1850   33.7837 H   0  0  0  0  0  0  0  0  0  0  0  0
    2.9602    1.6050   34.6222 H   0  0  0  0  0  0  0  0  0  0  0  0
    3.2737    0.3008   32.0455 H   0  0  0  0  0  0  0  0  0  0  0  0
    1.7462    0.6346   32.8693 H   0  0  0  0  0  0  0  0  0  0  0  0
    1.7264   -1.3877   33.8172 H   0  0  0  0  0  0  0  0  0  0  0  0
    4.6411   -1.5996   33.6098 H   0  0  0  0  0  0  0  0  0  0  0  0
    1.4546   -6.1384   36.4326 H   0  0  0  0  0  0  0  0  0  0  0  0
    1.3697   -5.1712   38.6155 H   0  0  0  0  0  0  0  0  0  0  0  0
    1.5256   -3.4881   38.1027 H   0  0  0  0  0  0  0  0  0  0  0  0
   -0.3866   -4.7201   40.0050 H   0  0  0  0  0  0  0  0  0  0  0  0
    0.2788   -3.0961   39.9602 H   0  0  0  0  0  0  0  0  0  0  0  0
   -2.0667   -4.1972   38.6740 H   0  0  0  0  0  0  0  0  0  0  0  0
   -0.6856   -1.7779   37.7725 H   0  0  0  0  0  0  0  0  0  0  0  0
   -2.2799   -2.2924   37.2470 H   0  0  0  0  0  0  0  0  0  0  0  0
   -1.4779   -3.9446   35.8829 H   0  0  0  0  0  0  0  0  0  0  0  0
   -0.1033   -2.8430   35.8332 H   0  0  0  0  0  0  0  0  0  0  0  0
    1.2475   -3.8186   33.6693 H   0  0  0  0  0  0  0  0  0  0  0  0
   -0.4836   -4.0393   33.6607 H   0  0  0  0  0  0  0  0  0  0  0  0
    1.6256   -5.7508   32.2016 H   0  0  0  0  0  0  0  0  0  0  0  0
    0.6073   -4.5144   31.4572 H   0  0  0  0  0  0  0  0  0  0  0  0
   -1.4185   -5.6800   32.0921 H   0  0  0  0  0  0  0  0  0  0  0  0
   -0.8070   -6.7018   30.1406 H   0  0  0  0  0  0  0  0  0  0  0  0
   -0.7668   -9.1563   31.2267 H   0  0  0  0  0  0  0  0  0  0  0  0
   -1.5887   -8.9435   33.3524 H   0  0  0  0  0  0  0  0  0  0  0  0
    0.4627   -7.7943   33.2572 H   0  0  0  0  0  0  0  0  0  0  0  0
   -0.4038   -7.3271   35.4208 H   0  0  0  0  0  0  0  0  0  0  0  0
   -1.5051   -6.0883   34.8264 H   0  0  0  0  0  0  0  0  0  0  0  0
    4.7039   -0.2468   35.6487 H   0  0  0  0  0  0  0  0  0  0  0  0
    2.9515   -0.3836   35.8694 H   0  0  0  0  0  0  0  0  0  0  0  0
  1  2  1  0
  2  3  1  0
  3  4  1  0
  4  5  1  0
  5  6  2  0
  6  7  1  0
  7  8  2  0
  8  9  1  0
  9 10  1  0
 10 11  1  0
 11 12  1  0
 12 13  1  0
 13 14  1  0
 14 15  1  0
  9 16  1  0
 16 17  1  0
 17 18  1  0
 18 19  1  0
 19 20  1  0
 20 21  1  0
 21 22  1  0
 22 23  1  0
 23 24  1  0
  8 25  1  0
  4 26  1  0
 26  1  1  0
 25  5  1  0
 15 10  1  0
 24 16  1  0
 23 19  1  0
  1 27  1  0
  1 28  1  0
  2 29  1  0
  2 30  1  0
  3 31  1  0
  4 32  1  0
  9 33  1  0
 11 34  1  0
 11 35  1  0
 12 36  1  0
 12 37  1  0
 13 38  1  0
 14 39  1  0
 14 40  1  0
 15 41  1  0
 15 42  1  0
 17 43  1  0
 17 44  1  0
 18 45  1  0
 18 46  1  0
 19 47  1  0
 20 48  1  0
 21 49  1  0
 22 50  1  0
 23 51  1  0
 24 52  1  0
 24 53  1  0
 26 54  1  0
 26 55  1  0
M  END
>  <Energy>  (268) 
181.58428755359392

>  <compound_id>  (268) 
2505

>  <target_id>  (268) 
1

>  <reference_id>  (268) 
168

>  <inspiration_ids>  (268) 
[168, 133]

>  <energy_score>  (268) 
-57.56858882687976

>  <distance_score>  (268) 
1.3570866652293117

>  <path>  (268) 
/opt/xchem-fragalysis-2/maxwin/BulkDock/SCRATCH/505736/C2505-P168/C2505-P168.minimised.mol

>  <scratch_subdir>  (268) 
/opt/xchem-fragalysis-2/maxwin/BulkDock/SCRATCH/505736/C2505-P168

>  <fragmenstein_runtime>  (268) 
3.2107720375061035

>  <fragmenstein_outcome>  (268) 
too moved

>  <fragmenstein_mode>  (268) 
expansion

>  <fragmenstein_error>  (268) 


$$$$
C2505-P133
     RDKit          3D

 55 59  0  0  0  0  0  0  0  0999 V2000
    3.4927    0.7697   34.1321 C   0  0  0  0  0  0  0  0  0  0  0  0
    2.7216    0.1529   32.9622 C   0  0  0  0  0  0  0  0  0  0  0  0
    2.5966   -1.2750   33.2469 N   0  0  0  0  0  0  0  0  0  0  0  0
    3.6970   -1.5717   34.1957 C   0  0  0  0  0  0  0  0  0  0  0  0
    3.5155   -2.8670   34.8894 C   0  0  0  0  0  0  0  0  0  0  0  0
    4.2489   -3.9511   34.7774 N   0  0  0  0  0  0  0  0  0  0  0  0
    3.5115   -4.9748   35.3059 N   0  0  0  0  0  0  0  0  0  0  0  0
    2.3791   -4.4480   35.7286 C   0  0  0  0  0  0  0  0  0  0  0  0
    1.0678   -5.1960   35.9700 C   0  0  0  0  0  0  0  0  0  0  0  0
    0.1209   -4.6352   36.9462 N   0  0  0  0  0  0  0  0  0  0  0  0
    0.7782   -4.2871   38.2177 C   0  0  0  0  0  0  0  0  0  0  0  0
   -0.2108   -3.8558   39.3266 C   0  0  0  0  0  0  0  0  0  0  0  0
   -1.4994   -3.3198   38.8619 N   0  0  0  0  0  0  0  0  0  0  0  0
   -1.3292   -2.6446   37.5752 C   0  0  0  0  0  0  0  0  0  0  0  0
   -0.7252   -3.5399   36.4675 C   0  0  0  0  0  0  0  0  0  0  0  0
    0.4798   -5.5853   34.6816 N   0  0  0  0  0  0  0  0  0  0  0  0
    0.4129   -4.6066   33.5965 C   0  0  0  0  0  0  0  0  0  0  0  0
    0.6002   -5.3152   32.2490 C   0  0  0  0  0  0  0  0  0  0  0  0
   -0.5155   -6.3210   32.1216 C   0  0  0  0  0  0  0  0  0  0  0  0
   -0.4650   -7.2502   30.9880 N   0  0  0  0  0  0  0  0  0  0  0  0
   -1.2936   -8.3625   31.4302 N   0  0  0  0  0  0  0  0  0  0  0  0
   -1.5798   -8.1513   32.8441 N   0  0  0  0  0  0  0  0  0  0  0  0
   -0.5089   -7.2777   33.2930 C   0  0  0  0  0  0  0  0  0  0  0  0
   -0.6008   -6.5719   34.6524 C   0  0  0  0  0  0  0  0  0  0  0  0
    2.3439   -3.0799   35.5692 O   0  0  0  0  0  0  0  0  0  0  0  0
    3.7021   -0.3678   35.1116 C   0  0  0  0  0  0  0  0  0  0  0  0
    4.4592    1.1508   33.7819 H   0  0  0  0  0  0  0  0  0  0  0  0
    2.9477    1.5993   34.5931 H   0  0  0  0  0  0  0  0  0  0  0  0
    3.2662    0.3058   32.0242 H   0  0  0  0  0  0  0  0  0  0  0  0
    1.7338    0.6118   32.8495 H   0  0  0  0  0  0  0  0  0  0  0  0
    1.7159   -1.4246   33.7429 H   0  0  0  0  0  0  0  0  0  0  0  0
    4.6365   -1.6116   33.6277 H   0  0  0  0  0  0  0  0  0  0  0  0
    1.4009   -6.1441   36.4178 H   0  0  0  0  0  0  0  0  0  0  0  0
    1.3566   -5.1404   38.5932 H   0  0  0  0  0  0  0  0  0  0  0  0
    1.4829   -3.4597   38.0649 H   0  0  0  0  0  0  0  0  0  0  0  0
   -0.4245   -4.7170   39.9713 H   0  0  0  0  0  0  0  0  0  0  0  0
    0.2744   -3.1070   39.9638 H   0  0  0  0  0  0  0  0  0  0  0  0
   -2.1190   -4.1221   38.7163 H   0  0  0  0  0  0  0  0  0  0  0  0
   -0.6845   -1.7689   37.7246 H   0  0  0  0  0  0  0  0  0  0  0  0
   -2.2989   -2.2589   37.2408 H   0  0  0  0  0  0  0  0  0  0  0  0
   -1.5568   -3.9788   35.9097 H   0  0  0  0  0  0  0  0  0  0  0  0
   -0.1868   -2.8762   35.7822 H   0  0  0  0  0  0  0  0  0  0  0  0
    1.1863   -3.8433   33.6376 H   0  0  0  0  0  0  0  0  0  0  0  0
   -0.5442   -4.0707   33.6174 H   0  0  0  0  0  0  0  0  0  0  0  0
    1.5846   -5.7985   32.2048 H   0  0  0  0  0  0  0  0  0  0  0  0
    0.5576   -4.5878   31.4303 H   0  0  0  0  0  0  0  0  0  0  0  0
   -1.4584   -5.7626   32.0808 H   0  0  0  0  0  0  0  0  0  0  0  0
   -0.8616   -6.8053   30.1596 H   0  0  0  0  0  0  0  0  0  0  0  0
   -0.7880   -9.2520   31.2831 H   0  0  0  0  0  0  0  0  0  0  0  0
   -1.5978   -9.0064   33.4072 H   0  0  0  0  0  0  0  0  0  0  0  0
    0.4387   -7.8306   33.3022 H   0  0  0  0  0  0  0  0  0  0  0  0
   -0.4817   -7.3179   35.4471 H   0  0  0  0  0  0  0  0  0  0  0  0
   -1.5746   -6.0964   34.7913 H   0  0  0  0  0  0  0  0  0  0  0  0
    4.6372   -0.2633   35.6712 H   0  0  0  0  0  0  0  0  0  0  0  0
    2.8782   -0.3990   35.8362 H   0  0  0  0  0  0  0  0  0  0  0  0
  1  2  1  0
  2  3  1  0
  3  4  1  0
  4  5  1  0
  5  6  2  0
  6  7  1  0
  7  8  2  0
  8  9  1  0
  9 10  1  0
 10 11  1  0
 11 12  1  0
 12 13  1  0
 13 14  1  0
 14 15  1  0
  9 16  1  0
 16 17  1  0
 17 18  1  0
 18 19  1  0
 19 20  1  0
 20 21  1  0
 21 22  1  0
 22 23  1  0
 23 24  1  0
  8 25  1  0
  4 26  1  0
 26  1  1  0
 25  5  1  0
 15 10  1  0
 24 16  1  0
 23 19  1  0
  1 27  1  0
  1 28  1  0
  2 29  1  0
  2 30  1  0
  3 31  1  0
  4 32  1  0
  9 33  1  0
 11 34  1  0
 11 35  1  0
 12 36  1  0
 12 37  1  0
 13 38  1  0
 14 39  1  0
 14 40  1  0
 15 41  1  0
 15 42  1  0
 17 43  1  0
 17 44  1  0
 18 45  1  0
 18 46  1  0
 19 47  1  0
 20 48  1  0
 21 49  1  0
 22 50  1  0
 23 51  1  0
 24 52  1  0
 24 53  1  0
 26 54  1  0
 26 55  1  0
M  END
>  <Energy>  (269) 
181.12750326686074

>  <compound_id>  (269) 
2505

>  <target_id>  (269) 
1

>  <reference_id>  (269) 
133

>  <inspiration_ids>  (269) 
[168, 133]

>  <energy_score>  (269) 
-58.02537311361226

>  <distance_score>  (269) 
1.3542543365139206

>  <path>  (269) 
/opt/xchem-fragalysis-2/maxwin/BulkDock/SCRATCH/505736/C2505-P133/C2505-P133.minimised.mol

>  <scratch_subdir>  (269) 
/opt/xchem-fragalysis-2/maxwin/BulkDock/SCRATCH/505736/C2505-P133

>  <fragmenstein_runtime>  (269) 
3.2362277507781982

>  <fragmenstein_outcome>  (269) 
too moved

>  <fragmenstein_mode>  (269) 
expansion

>  <fragmenstein_error>  (269) 


$$$$
C2507-P168
     RDKit          3D

 52 56  0  0  0  0  0  0  0  0999 V2000
   -0.0652   -4.3579   31.6018 O   0  0  0  0  0  0  0  0  0  0  0  0
    0.8399   -4.2392   32.9377 S   0  0  0  0  0  0  0  0  0  0  0  0
    2.3842   -4.1094   32.5233 O   0  0  0  0  0  0  0  0  0  0  0  0
    0.4679   -2.8380   33.8654 C   0  0  0  0  0  0  0  0  0  0  0  0
    0.1758   -1.6514   32.9740 C   0  0  0  0  0  0  0  0  0  0  0  0
    1.1805   -1.1652   32.1099 C   0  0  0  0  0  0  0  0  0  0  0  0
    0.8543   -0.5097   30.9102 C   0  0  0  0  0  0  0  0  0  0  0  0
   -0.4791   -0.3275   30.5653 C   0  0  0  0  0  0  0  0  0  0  0  0
   -1.4731   -0.7658   31.4389 C   0  0  0  0  0  0  0  0  0  0  0  0
   -1.1552   -1.4323   32.6291 C   0  0  0  0  0  0  0  0  0  0  0  0
    0.3151   -2.9133   35.4405 C   0  0  0  0  0  0  0  0  0  0  0  0
    1.0381   -4.2162   36.0377 C   0  0  0  0  0  0  0  0  0  0  0  0
    1.4744   -5.4194   35.1718 C   0  0  0  0  0  0  0  0  0  0  0  0
    0.6481   -5.6736   33.9147 C   0  0  0  0  0  0  0  0  0  0  0  0
   -0.8375   -5.9374   34.3569 C   0  0  0  0  0  0  0  0  0  0  0  0
   -1.3365   -7.3918   34.1993 C   0  0  0  0  0  0  0  0  0  0  0  0
   -1.0760   -7.7319   32.7977 C   0  0  0  0  0  0  0  0  0  0  0  0
   -1.9240   -8.1303   31.8265 N   0  0  0  0  0  0  0  0  0  0  0  0
   -1.2771   -8.0124   30.6684 N   0  0  0  0  0  0  0  0  0  0  0  0
   -0.0630   -7.4932   30.9202 N   0  0  0  0  0  0  0  0  0  0  0  0
    0.1252   -7.3799   32.2558 C   0  0  0  0  0  0  0  0  0  0  0  0
    1.2194   -6.8031   33.0568 C   0  0  0  0  0  0  0  0  0  0  0  0
    0.9296   -1.6869   36.1789 C   0  0  0  0  0  0  0  0  0  0  0  0
    0.6757   -1.6826   37.6416 N   0  0  0  0  0  0  0  0  0  0  0  0
   -0.7788   -1.6991   37.8650 C   0  0  0  0  0  0  0  0  0  0  0  0
   -1.5161   -2.8241   37.1118 C   0  0  0  0  0  0  0  0  0  0  0  0
   -1.1410   -2.9320   35.6967 N   0  0  0  0  0  0  0  0  0  0  0  0
    2.4731   -3.7672   31.6008 H   0  0  0  0  0  0  0  0  0  0  0  0
    2.2260   -1.3614   32.3345 H   0  0  0  0  0  0  0  0  0  0  0  0
    1.6400   -0.1664   30.2425 H   0  0  0  0  0  0  0  0  0  0  0  0
   -0.7488    0.1628   29.6327 H   0  0  0  0  0  0  0  0  0  0  0  0
   -2.5130   -0.6125   31.1816 H   0  0  0  0  0  0  0  0  0  0  0  0
   -1.9568   -1.8563   33.2297 H   0  0  0  0  0  0  0  0  0  0  0  0
    1.9594   -3.8969   36.5459 H   0  0  0  0  0  0  0  0  0  0  0  0
    0.4329   -4.6233   36.8561 H   0  0  0  0  0  0  0  0  0  0  0  0
    1.4780   -6.3161   35.8066 H   0  0  0  0  0  0  0  0  0  0  0  0
    2.5267   -5.2650   34.8941 H   0  0  0  0  0  0  0  0  0  0  0  0
   -1.4610   -5.3042   33.7229 H   0  0  0  0  0  0  0  0  0  0  0  0
   -1.0177   -5.6617   35.3983 H   0  0  0  0  0  0  0  0  0  0  0  0
   -2.3843   -7.4917   34.4726 H   0  0  0  0  0  0  0  0  0  0  0  0
   -0.7643   -8.0396   34.8717 H   0  0  0  0  0  0  0  0  0  0  0  0
    0.5341   -7.2426   30.1422 H   0  0  0  0  0  0  0  0  0  0  0  0
    1.5813   -7.5620   33.7558 H   0  0  0  0  0  0  0  0  0  0  0  0
    2.0618   -6.5029   32.4312 H   0  0  0  0  0  0  0  0  0  0  0  0
    2.0138   -1.6583   36.0135 H   0  0  0  0  0  0  0  0  0  0  0  0
    0.5470   -0.7509   35.7507 H   0  0  0  0  0  0  0  0  0  0  0  0
    1.0716   -2.5258   38.0523 H   0  0  0  0  0  0  0  0  0  0  0  0
   -0.9723   -1.7928   38.9394 H   0  0  0  0  0  0  0  0  0  0  0  0
   -1.1897   -0.7285   37.5593 H   0  0  0  0  0  0  0  0  0  0  0  0
   -2.5914   -2.6245   37.1675 H   0  0  0  0  0  0  0  0  0  0  0  0
   -1.3540   -3.7800   37.6212 H   0  0  0  0  0  0  0  0  0  0  0  0
   -1.6461   -3.6940   35.2452 H   0  0  0  0  0  0  0  0  0  0  0  0
  1  2  2  0
  2  3  1  0
  2  4  2  0
  4  5  1  0
  5  6  2  0
  6  7  1  0
  7  8  2  0
  8  9  1  0
  9 10  2  0
  4 11  1  0
 11 12  1  0
 12 13  1  0
 13 14  1  0
 14 15  1  0
 15 16  1  0
 16 17  1  0
 17 18  1  0
 18 19  2  0
 19 20  1  0
 20 21  1  0
 21 22  1  0
 11 23  1  0
 23 24  1  0
 24 25  1  0
 25 26  1  0
 26 27  1  0
 14  2  1  0
 21 17  2  0
 10  5  1  0
 27 11  1  0
 22 14  1  0
  3 28  1  0
  6 29  1  0
  7 30  1  0
  8 31  1  0
  9 32  1  0
 10 33  1  0
 12 34  1  0
 12 35  1  0
 13 36  1  0
 13 37  1  0
 15 38  1  0
 15 39  1  0
 16 40  1  0
 16 41  1  0
 20 42  1  0
 22 43  1  0
 22 44  1  0
 23 45  1  0
 23 46  1  0
 24 47  1  0
 25 48  1  0
 25 49  1  0
 26 50  1  0
 26 51  1  0
 27 52  1  0
M  END
>  <Energy>  (270) 
155.91140801863924

>  <compound_id>  (270) 
2507

>  <target_id>  (270) 
1

>  <reference_id>  (270) 
168

>  <inspiration_ids>  (270) 
[168, 135]

>  <energy_score>  (270) 
-48.28800754180645

>  <distance_score>  (270) 
1.9237340778178071

>  <path>  (270) 
/opt/xchem-fragalysis-2/maxwin/BulkDock/SCRATCH/505736/C2507-P168/C2507-P168.minimised.mol

>  <scratch_subdir>  (270) 
/opt/xchem-fragalysis-2/maxwin/BulkDock/SCRATCH/505736/C2507-P168

>  <fragmenstein_runtime>  (270) 
13.650781631469727

>  <fragmenstein_outcome>  (270) 
too moved

>  <fragmenstein_mode>  (270) 
expansion

>  <fragmenstein_error>  (270) 


$$$$
C2507-P135
     RDKit          3D

 52 56  0  0  0  0  0  0  0  0999 V2000
   -0.0605   -4.4084   31.5923 O   0  0  0  0  0  0  0  0  0  0  0  0
    0.8126   -4.2413   32.9439 S   0  0  0  0  0  0  0  0  0  0  0  0
    2.3582   -4.0512   32.5578 O   0  0  0  0  0  0  0  0  0  0  0  0
    0.3695   -2.8343   33.8326 C   0  0  0  0  0  0  0  0  0  0  0  0
    0.0115   -1.6829   32.9280 C   0  0  0  0  0  0  0  0  0  0  0  0
    1.0113   -1.1021   32.1208 C   0  0  0  0  0  0  0  0  0  0  0  0
    0.6865   -0.4645   30.9107 C   0  0  0  0  0  0  0  0  0  0  0  0
   -0.6386   -0.4049   30.4930 C   0  0  0  0  0  0  0  0  0  0  0  0
   -1.6332   -0.9550   31.2997 C   0  0  0  0  0  0  0  0  0  0  0  0
   -1.3151   -1.5959   32.5060 C   0  0  0  0  0  0  0  0  0  0  0  0
    0.3177   -2.8829   35.4049 C   0  0  0  0  0  0  0  0  0  0  0  0
    1.3961   -3.9651   35.8511 C   0  0  0  0  0  0  0  0  0  0  0  0
    1.4665   -5.3928   35.2357 C   0  0  0  0  0  0  0  0  0  0  0  0
    0.6639   -5.6604   33.9527 C   0  0  0  0  0  0  0  0  0  0  0  0
   -0.8164   -5.9752   34.3833 C   0  0  0  0  0  0  0  0  0  0  0  0
   -1.3003   -7.4333   34.1941 C   0  0  0  0  0  0  0  0  0  0  0  0
   -1.0166   -7.7564   32.7936 C   0  0  0  0  0  0  0  0  0  0  0  0
   -1.8370   -8.1821   31.8082 N   0  0  0  0  0  0  0  0  0  0  0  0
   -1.1815   -8.0269   30.6586 N   0  0  0  0  0  0  0  0  0  0  0  0
    0.0005   -7.4429   30.9346 N   0  0  0  0  0  0  0  0  0  0  0  0
    0.1845   -7.3712   32.2749 C   0  0  0  0  0  0  0  0  0  0  0  0
    1.2567   -6.7866   33.1071 C   0  0  0  0  0  0  0  0  0  0  0  0
    0.6774   -1.5457   36.1031 C   0  0  0  0  0  0  0  0  0  0  0  0
    0.6103   -1.5639   37.5803 N   0  0  0  0  0  0  0  0  0  0  0  0
   -0.5337   -2.3514   38.0693 C   0  0  0  0  0  0  0  0  0  0  0  0
   -1.5693   -2.7136   36.9922 C   0  0  0  0  0  0  0  0  0  0  0  0
   -1.0018   -3.3925   35.8190 N   0  0  0  0  0  0  0  0  0  0  0  0
    2.4510   -3.7277   31.6290 H   0  0  0  0  0  0  0  0  0  0  0  0
    2.0582   -1.2120   32.3940 H   0  0  0  0  0  0  0  0  0  0  0  0
    1.4710   -0.0452   30.2859 H   0  0  0  0  0  0  0  0  0  0  0  0
   -0.8998    0.0624   29.5461 H   0  0  0  0  0  0  0  0  0  0  0  0
   -2.6646   -0.9214   30.9670 H   0  0  0  0  0  0  0  0  0  0  0  0
   -2.1028   -2.1133   33.0479 H   0  0  0  0  0  0  0  0  0  0  0  0
    2.3812   -3.5127   35.6584 H   0  0  0  0  0  0  0  0  0  0  0  0
    1.3658   -4.0994   36.9394 H   0  0  0  0  0  0  0  0  0  0  0  0
    1.1903   -6.1256   36.0062 H   0  0  0  0  0  0  0  0  0  0  0  0
    2.5299   -5.5941   35.0402 H   0  0  0  0  0  0  0  0  0  0  0  0
   -1.4441   -5.3356   33.7640 H   0  0  0  0  0  0  0  0  0  0  0  0
   -0.9977   -5.7395   35.4341 H   0  0  0  0  0  0  0  0  0  0  0  0
   -2.3520   -7.5449   34.4476 H   0  0  0  0  0  0  0  0  0  0  0  0
   -0.7346   -8.0859   34.8675 H   0  0  0  0  0  0  0  0  0  0  0  0
    0.5775   -7.1125   30.1714 H   0  0  0  0  0  0  0  0  0  0  0  0
    1.6005   -7.5415   33.8200 H   0  0  0  0  0  0  0  0  0  0  0  0
    2.1169   -6.4831   32.5069 H   0  0  0  0  0  0  0  0  0  0  0  0
    1.6816   -1.2206   35.8038 H   0  0  0  0  0  0  0  0  0  0  0  0
    0.0039   -0.7552   35.7463 H   0  0  0  0  0  0  0  0  0  0  0  0
    1.4646   -1.9746   37.9551 H   0  0  0  0  0  0  0  0  0  0  0  0
   -0.1582   -3.2766   38.5237 H   0  0  0  0  0  0  0  0  0  0  0  0
   -1.0234   -1.7887   38.8715 H   0  0  0  0  0  0  0  0  0  0  0  0
   -2.0813   -1.8010   36.6615 H   0  0  0  0  0  0  0  0  0  0  0  0
   -2.3315   -3.3607   37.4362 H   0  0  0  0  0  0  0  0  0  0  0  0
   -1.6894   -3.3620   35.0632 H   0  0  0  0  0  0  0  0  0  0  0  0
  1  2  2  0
  2  3  1  0
  2  4  2  0
  4  5  1  0
  5  6  2  0
  6  7  1  0
  7  8  2  0
  8  9  1  0
  9 10  2  0
  4 11  1  0
 11 12  1  0
 12 13  1  0
 13 14  1  0
 14 15  1  0
 15 16  1  0
 16 17  1  0
 17 18  1  0
 18 19  2  0
 19 20  1  0
 20 21  1  0
 21 22  1  0
 11 23  1  0
 23 24  1  0
 24 25  1  0
 25 26  1  0
 26 27  1  0
 14  2  1  0
 21 17  2  0
 10  5  1  0
 27 11  1  0
 22 14  1  0
  3 28  1  0
  6 29  1  0
  7 30  1  0
  8 31  1  0
  9 32  1  0
 10 33  1  0
 12 34  1  0
 12 35  1  0
 13 36  1  0
 13 37  1  0
 15 38  1  0
 15 39  1  0
 16 40  1  0
 16 41  1  0
 20 42  1  0
 22 43  1  0
 22 44  1  0
 23 45  1  0
 23 46  1  0
 24 47  1  0
 25 48  1  0
 25 49  1  0
 26 50  1  0
 26 51  1  0
 27 52  1  0
M  END
>  <Energy>  (271) 
157.75341850785102

>  <compound_id>  (271) 
2507

>  <target_id>  (271) 
1

>  <reference_id>  (271) 
135

>  <inspiration_ids>  (271) 
[168, 135]

>  <energy_score>  (271) 
-46.445997052592844

>  <distance_score>  (271) 
1.9905651328896992

>  <path>  (271) 
/opt/xchem-fragalysis-2/maxwin/BulkDock/SCRATCH/505736/C2507-P135/C2507-P135.minimised.mol

>  <scratch_subdir>  (271) 
/opt/xchem-fragalysis-2/maxwin/BulkDock/SCRATCH/505736/C2507-P135

>  <fragmenstein_runtime>  (271) 
13.969473838806152

>  <fragmenstein_outcome>  (271) 
too moved

>  <fragmenstein_mode>  (271) 
expansion

>  <fragmenstein_error>  (271) 


$$$$
C2508-P168
     RDKit          3D

 45 49  0  0  0  0  0  0  0  0999 V2000
    2.2426   -6.4442   36.5765 O   0  0  0  0  0  0  0  0  0  0  0  0
    0.7997   -6.4589   36.6437 S   0  0  0  0  0  0  0  0  0  0  0  0
    0.0796   -7.4942   37.3393 O   0  0  0  0  0  0  0  0  0  0  0  0
    0.2967   -4.9738   37.2398 N   0  0  0  0  0  0  0  0  0  0  0  0
    1.1776   -4.3886   38.2983 C   0  0  0  0  0  0  0  0  0  0  0  0
    0.4290   -3.4057   39.2243 C   0  0  0  0  0  0  0  0  0  0  0  0
   -0.5117   -2.5357   38.5114 N   0  0  0  0  0  0  0  0  0  0  0  0
   -1.4871   -3.3278   37.7447 C   0  0  0  0  0  0  0  0  0  0  0  0
   -1.1408   -4.8198   37.5473 C   0  0  0  0  0  0  0  0  0  0  0  0
    0.2541   -6.3763   35.0757 N   0  0  0  0  0  0  0  0  0  0  0  0
   -0.9074   -7.2233   34.6684 C   0  0  0  0  0  0  0  0  0  0  0  0
   -0.9094   -7.3341   33.1856 C   0  0  0  0  0  0  0  0  0  0  0  0
   -1.5516   -8.2072   32.3589 N   0  0  0  0  0  0  0  0  0  0  0  0
   -1.2189   -7.9036   31.0926 N   0  0  0  0  0  0  0  0  0  0  0  0
   -0.3689   -6.8377   31.1114 N   0  0  0  0  0  0  0  0  0  0  0  0
    0.2461   -6.1030   30.1053 C   0  0  0  0  0  0  0  0  0  0  0  0
    0.9687   -5.0115   30.4369 C   0  0  0  0  0  0  0  0  0  0  0  0
    1.1082   -4.5950   31.8563 C   0  0  0  0  0  0  0  0  0  0  0  0
    1.7721   -3.3311   32.2443 C   0  0  0  0  0  0  0  0  0  0  0  0
    1.3401   -2.1028   31.7529 C   0  0  0  0  0  0  0  0  0  0  0  0
    1.8587   -0.9210   32.1683 N   0  0  0  0  0  0  0  0  0  0  0  0
    2.8272   -1.0106   33.1067 C   0  0  0  0  0  0  0  0  0  0  0  0
    3.2687   -2.2264   33.5955 C   0  0  0  0  0  0  0  0  0  0  0  0
    2.7594   -3.4062   33.1698 N   0  0  0  0  0  0  0  0  0  0  0  0
    0.5475   -5.3589   32.8332 C   0  0  0  0  0  0  0  0  0  0  0  0
   -0.2080   -6.4716   32.4116 C   0  0  0  0  0  0  0  0  0  0  0  0
    0.5606   -5.1081   34.3395 C   0  0  0  0  0  0  0  0  0  0  0  0
    1.6168   -5.1791   38.9173 H   0  0  0  0  0  0  0  0  0  0  0  0
    1.9892   -3.8555   37.7891 H   0  0  0  0  0  0  0  0  0  0  0  0
   -0.1136   -3.9675   39.9955 H   0  0  0  0  0  0  0  0  0  0  0  0
    1.1631   -2.7872   39.7525 H   0  0  0  0  0  0  0  0  0  0  0  0
   -0.9973   -1.9297   39.1712 H   0  0  0  0  0  0  0  0  0  0  0  0
   -1.5888   -2.8531   36.7619 H   0  0  0  0  0  0  0  0  0  0  0  0
   -2.4677   -3.2595   38.2295 H   0  0  0  0  0  0  0  0  0  0  0  0
   -1.3822   -5.3846   38.4553 H   0  0  0  0  0  0  0  0  0  0  0  0
   -1.7491   -5.2065   36.7271 H   0  0  0  0  0  0  0  0  0  0  0  0
   -1.8384   -6.7777   35.0201 H   0  0  0  0  0  0  0  0  0  0  0  0
   -0.8020   -8.2182   35.0997 H   0  0  0  0  0  0  0  0  0  0  0  0
    0.0944   -6.4474   29.0917 H   0  0  0  0  0  0  0  0  0  0  0  0
    1.4618   -4.4150   29.6745 H   0  0  0  0  0  0  0  0  0  0  0  0
    0.5402   -2.0237   31.0240 H   0  0  0  0  0  0  0  0  0  0  0  0
    3.2440   -0.0721   33.4543 H   0  0  0  0  0  0  0  0  0  0  0  0
    4.0492   -2.2874   34.3458 H   0  0  0  0  0  0  0  0  0  0  0  0
    1.5364   -4.7493   34.6690 H   0  0  0  0  0  0  0  0  0  0  0  0
   -0.2050   -4.3625   34.5832 H   0  0  0  0  0  0  0  0  0  0  0  0
  1  2  2  0
  2  3  2  0
  2  4  1  0
  4  5  1  0
  5  6  1  0
  6  7  1  0
  7  8  1  0
  8  9  1  0
  2 10  1  0
 10 11  1  0
 11 12  1  0
 12 13  1  0
 13 14  2  0
 14 15  1  0
 15 16  1  0
 16 17  2  0
 17 18  1  0
 18 19  1  0
 19 20  2  0
 20 21  1  0
 21 22  2  0
 22 23  1  0
 23 24  2  0
 18 25  2  0
 25 26  1  0
 25 27  1  0
  9  4  1  0
 27 10  1  0
 26 12  2  0
 26 15  1  0
 24 19  1  0
  5 28  1  0
  5 29  1  0
  6 30  1  0
  6 31  1  0
  7 32  1  0
  8 33  1  0
  8 34  1  0
  9 35  1  0
  9 36  1  0
 11 37  1  0
 11 38  1  0
 16 39  1  0
 17 40  1  0
 20 41  1  0
 22 42  1  0
 23 43  1  0
 27 44  1  0
 27 45  1  0
M  END
>  <Energy>  (272) 
-10.155147458343617

>  <compound_id>  (272) 
2508

>  <target_id>  (272) 
1

>  <reference_id>  (272) 
168

>  <inspiration_ids>  (272) 
[168, 136]

>  <energy_score>  (272) 
-73.08472958413817

>  <distance_score>  (272) 
0.40734252114740926

>  <path>  (272) 
/opt/xchem-fragalysis-2/maxwin/BulkDock/SCRATCH/505736/C2508-P168/C2508-P168.minimised.mol

>  <scratch_subdir>  (272) 
/opt/xchem-fragalysis-2/maxwin/BulkDock/SCRATCH/505736/C2508-P168

>  <fragmenstein_runtime>  (272) 
3.361098051071167

>  <fragmenstein_outcome>  (272) 
acceptable

>  <fragmenstein_mode>  (272) 
expansion

>  <fragmenstein_error>  (272) 


$$$$
C2508-P136
     RDKit          3D

 45 49  0  0  0  0  0  0  0  0999 V2000
    2.0063   -6.3382   36.3156 O   0  0  0  0  0  0  0  0  0  0  0  0
    0.6129   -6.3105   36.6939 S   0  0  0  0  0  0  0  0  0  0  0  0
    0.0351   -7.3321   37.5272 O   0  0  0  0  0  0  0  0  0  0  0  0
    0.2703   -4.8326   37.4117 N   0  0  0  0  0  0  0  0  0  0  0  0
    1.2666   -4.3329   38.3934 C   0  0  0  0  0  0  0  0  0  0  0  0
    0.6464   -3.3395   39.4029 C   0  0  0  0  0  0  0  0  0  0  0  0
   -0.3244   -2.4127   38.8072 N   0  0  0  0  0  0  0  0  0  0  0  0
   -1.3974   -3.1446   38.1094 C   0  0  0  0  0  0  0  0  0  0  0  0
   -1.1292   -4.6406   37.8570 C   0  0  0  0  0  0  0  0  0  0  0  0
   -0.2973   -6.1230   35.3129 N   0  0  0  0  0  0  0  0  0  0  0  0
   -0.9895   -7.3360   34.7565 C   0  0  0  0  0  0  0  0  0  0  0  0
   -0.8966   -7.3728   33.2762 C   0  0  0  0  0  0  0  0  0  0  0  0
   -1.3519   -8.3024   32.3843 N   0  0  0  0  0  0  0  0  0  0  0  0
   -0.9175   -7.9556   31.1612 N   0  0  0  0  0  0  0  0  0  0  0  0
   -0.1631   -6.8274   31.2833 N   0  0  0  0  0  0  0  0  0  0  0  0
    0.6273   -6.1147   30.3986 C   0  0  0  0  0  0  0  0  0  0  0  0
    1.2403   -4.9865   30.8003 C   0  0  0  0  0  0  0  0  0  0  0  0
    1.0657   -4.4966   32.1824 C   0  0  0  0  0  0  0  0  0  0  0  0
    1.6692   -3.2227   32.6137 C   0  0  0  0  0  0  0  0  0  0  0  0
    1.3352   -2.0149   32.0088 C   0  0  0  0  0  0  0  0  0  0  0  0
    1.8609   -0.8287   32.4011 N   0  0  0  0  0  0  0  0  0  0  0  0
    2.7344   -0.8974   33.4306 C   0  0  0  0  0  0  0  0  0  0  0  0
    3.0757   -2.0955   34.0329 C   0  0  0  0  0  0  0  0  0  0  0  0
    2.5591   -3.2794   33.6336 N   0  0  0  0  0  0  0  0  0  0  0  0
    0.3257   -5.2282   33.0594 C   0  0  0  0  0  0  0  0  0  0  0  0
   -0.2507   -6.4149   32.5743 C   0  0  0  0  0  0  0  0  0  0  0  0
   -0.0055   -4.8980   34.4997 C   0  0  0  0  0  0  0  0  0  0  0  0
    1.7157   -5.1639   38.9486 H   0  0  0  0  0  0  0  0  0  0  0  0
    2.0582   -3.8253   37.8299 H   0  0  0  0  0  0  0  0  0  0  0  0
    0.1573   -3.8983   40.2114 H   0  0  0  0  0  0  0  0  0  0  0  0
    1.4517   -2.7633   39.8721 H   0  0  0  0  0  0  0  0  0  0  0  0
   -0.7288   -1.8179   39.5285 H   0  0  0  0  0  0  0  0  0  0  0  0
   -1.5571   -2.6430   37.1478 H   0  0  0  0  0  0  0  0  0  0  0  0
   -2.3325   -3.0473   38.6732 H   0  0  0  0  0  0  0  0  0  0  0  0
   -1.3085   -5.2193   38.7706 H   0  0  0  0  0  0  0  0  0  0  0  0
   -1.8245   -4.9823   37.0870 H   0  0  0  0  0  0  0  0  0  0  0  0
   -2.0358   -7.3130   35.0705 H   0  0  0  0  0  0  0  0  0  0  0  0
   -0.5247   -8.2374   35.1610 H   0  0  0  0  0  0  0  0  0  0  0  0
    0.7597   -6.5296   29.4230 H   0  0  0  0  0  0  0  0  0  0  0  0
    1.8910   -4.4348   30.1277 H   0  0  0  0  0  0  0  0  0  0  0  0
    0.6232   -1.9594   31.1919 H   0  0  0  0  0  0  0  0  0  0  0  0
    3.1569    0.0447   33.7610 H   0  0  0  0  0  0  0  0  0  0  0  0
    3.7778   -2.1373   34.8578 H   0  0  0  0  0  0  0  0  0  0  0  0
    0.7891   -4.3122   34.9637 H   0  0  0  0  0  0  0  0  0  0  0  0
   -0.9094   -4.2771   34.5211 H   0  0  0  0  0  0  0  0  0  0  0  0
  1  2  2  0
  2  3  2  0
  2  4  1  0
  4  5  1  0
  5  6  1  0
  6  7  1  0
  7  8  1  0
  8  9  1  0
  2 10  1  0
 10 11  1  0
 11 12  1  0
 12 13  1  0
 13 14  2  0
 14 15  1  0
 15 16  1  0
 16 17  2  0
 17 18  1  0
 18 19  1  0
 19 20  2  0
 20 21  1  0
 21 22  2  0
 22 23  1  0
 23 24  2  0
 18 25  2  0
 25 26  1  0
 25 27  1  0
  9  4  1  0
 27 10  1  0
 26 12  2  0
 26 15  1  0
 24 19  1  0
  5 28  1  0
  5 29  1  0
  6 30  1  0
  6 31  1  0
  7 32  1  0
  8 33  1  0
  8 34  1  0
  9 35  1  0
  9 36  1  0
 11 37  1  0
 11 38  1  0
 16 39  1  0
 17 40  1  0
 20 41  1  0
 22 42  1  0
 23 43  1  0
 27 44  1  0
 27 45  1  0
M  END
>  <Energy>  (273) 
-7.837964677634508

>  <compound_id>  (273) 
2508

>  <target_id>  (273) 
1

>  <reference_id>  (273) 
136

>  <inspiration_ids>  (273) 
[168, 136]

>  <energy_score>  (273) 
-70.76754680343129

>  <distance_score>  (273) 
0.43720087590677775

>  <path>  (273) 
/opt/xchem-fragalysis-2/maxwin/BulkDock/SCRATCH/505736/C2508-P136/C2508-P136.minimised.mol

>  <scratch_subdir>  (273) 
/opt/xchem-fragalysis-2/maxwin/BulkDock/SCRATCH/505736/C2508-P136

>  <fragmenstein_runtime>  (273) 
3.5062031745910645

>  <fragmenstein_outcome>  (273) 
acceptable

>  <fragmenstein_mode>  (273) 
expansion

>  <fragmenstein_error>  (273) 


$$$$
C2508-P168
     RDKit          2D

  0  0  0  0  0  0  0  0  0  0999 V2000
M  END
>  <compound_id>  (274) 
2508

>  <target_id>  (274) 
1

>  <reference_id>  (274) 
168

>  <inspiration_ids>  (274) 
[168, 140]

>  <energy_score>  (274) 
nan

>  <distance_score>  (274) 
nan

>  <path>  (274) 
/opt/xchem-fragalysis-2/maxwin/BulkDock/SCRATCH/505736/C2508-P168/C2508-P168.minimised.mol

>  <scratch_subdir>  (274) 
/opt/xchem-fragalysis-2/maxwin/BulkDock/SCRATCH/505736/C2508-P168

>  <fragmenstein_runtime>  (274) 
0.4164712429046631

>  <fragmenstein_outcome>  (274) 
too distant

>  <fragmenstein_mode>  (274) 
expansion

>  <fragmenstein_error>  (274) 
DistanceError: hit1

$$$$
C2515-P168
     RDKit          3D

 71 76  0  0  0  0  0  0  0  0999 V2000
    2.2552   -3.7594   27.1752 O   0  0  0  0  0  0  0  0  0  0  0  0
    2.3566   -3.9118   28.3248 C   0  0  0  0  0  0  0  0  0  0  0  0
    1.6087   -3.2306   29.4965 N   0  0  0  0  0  0  0  0  0  0  0  0
    0.4980   -2.2758   29.4892 C   0  0  0  0  0  0  0  0  0  0  0  0
    0.0625   -2.2493   30.9730 C   0  0  0  0  0  0  0  0  0  0  0  0
   -0.5649   -3.2411   31.5686 N   0  0  0  0  0  0  0  0  0  0  0  0
    0.0479   -3.4052   32.7824 N   0  0  0  0  0  0  0  0  0  0  0  0
    0.9849   -2.4873   32.8671 C   0  0  0  0  0  0  0  0  0  0  0  0
    2.2044   -2.5553   33.5802 C   0  0  0  0  0  0  0  0  0  0  0  0
    2.4058   -2.4111   34.9280 C   0  0  0  0  0  0  0  0  0  0  0  0
    3.7874   -2.4971   35.2564 C   0  0  0  0  0  0  0  0  0  0  0  0
    4.5815   -2.7286   34.1523 C   0  0  0  0  0  0  0  0  0  0  0  0
    3.6653   -2.8364   32.7215 S   0  0  0  0  0  0  0  0  0  0  0  0
    0.7855   -1.5564   31.8927 N   0  0  0  0  0  0  0  0  0  0  0  0
    0.7275   -0.9385   28.7739 C   0  0  0  0  0  0  0  0  0  0  0  0
   -0.7499   -0.9965   28.3432 C   0  0  0  0  0  0  0  0  0  0  0  0
   -0.7041   -2.5246   28.5901 C   0  0  0  0  0  0  0  0  0  0  0  0
    3.2592   -4.9845   28.9201 C   0  0  0  0  0  0  0  0  0  0  0  0
    4.9261   -4.7320   28.3670 Cl  0  0  0  0  0  0  0  0  0  0  0  0
    2.6454   -6.6158   28.3422 S   0  0  0  0  0  0  0  0  0  0  0  0
    0.8312   -6.6503   28.8305 C   0  0  0  0  0  0  0  0  0  0  0  0
    0.4056   -6.0399   30.1545 C   0  0  0  0  0  0  0  0  0  0  0  0
   -0.0414   -6.9000   31.2243 N   0  0  0  0  0  0  0  0  0  0  0  0
   -1.1837   -7.6136   31.1349 N   0  0  0  0  0  0  0  0  0  0  0  0
   -1.5865   -7.8944   32.3796 N   0  0  0  0  0  0  0  0  0  0  0  0
   -0.6786   -7.3599   33.2515 C   0  0  0  0  0  0  0  0  0  0  0  0
    0.3375   -6.7860   32.5267 C   0  0  0  0  0  0  0  0  0  0  0  0
    1.4841   -6.0744   33.1196 C   0  0  0  0  0  0  0  0  0  0  0  0
    1.0941   -5.6100   34.5218 C   0  0  0  0  0  0  0  0  0  0  0  0
    0.5120   -6.7333   35.2823 N   0  0  0  0  0  0  0  0  0  0  0  0
    0.8048   -6.6747   36.9151 S   0  0  0  0  0  0  0  0  0  0  0  0
    2.2450   -6.7135   37.0450 O   0  0  0  0  0  0  0  0  0  0  0  0
   -0.0539   -7.6074   37.5888 O   0  0  0  0  0  0  0  0  0  0  0  0
    0.3235   -5.1024   37.3167 N   0  0  0  0  0  0  0  0  0  0  0  0
    1.0796   -4.5411   38.4914 C   0  0  0  0  0  0  0  0  0  0  0  0
    0.3266   -3.3785   39.1769 C   0  0  0  0  0  0  0  0  0  0  0  0
   -0.4317   -2.5427   38.2312 N   0  0  0  0  0  0  0  0  0  0  0  0
   -1.4445   -3.3729   37.5467 C   0  0  0  0  0  0  0  0  0  0  0  0
   -1.1371   -4.8847   37.4779 C   0  0  0  0  0  0  0  0  0  0  0  0
   -0.7754   -7.2798   34.7505 C   0  0  0  0  0  0  0  0  0  0  0  0
    1.8860   -3.6602   30.3706 H   0  0  0  0  0  0  0  0  0  0  0  0
    1.6121   -2.2401   35.6445 H   0  0  0  0  0  0  0  0  0  0  0  0
    4.1865   -2.4055   36.2607 H   0  0  0  0  0  0  0  0  0  0  0  0
    5.6580   -2.8411   34.1300 H   0  0  0  0  0  0  0  0  0  0  0  0
    1.4386   -0.8179   31.6777 H   0  0  0  0  0  0  0  0  0  0  0  0
    0.9944   -0.0787   29.3949 H   0  0  0  0  0  0  0  0  0  0  0  0
    1.4331   -0.9868   27.9375 H   0  0  0  0  0  0  0  0  0  0  0  0
   -1.4110   -0.4574   29.0322 H   0  0  0  0  0  0  0  0  0  0  0  0
   -0.9753   -0.6629   27.3314 H   0  0  0  0  0  0  0  0  0  0  0  0
   -0.4681   -3.1736   27.7575 H   0  0  0  0  0  0  0  0  0  0  0  0
   -1.5961   -2.9316   29.0733 H   0  0  0  0  0  0  0  0  0  0  0  0
    3.2923   -4.9705   30.0087 H   0  0  0  0  0  0  0  0  0  0  0  0
    0.3166   -6.1032   28.0350 H   0  0  0  0  0  0  0  0  0  0  0  0
    0.5103   -7.6950   28.7577 H   0  0  0  0  0  0  0  0  0  0  0  0
    1.2227   -5.4656   30.5665 H   0  0  0  0  0  0  0  0  0  0  0  0
   -0.4190   -5.3454   29.9738 H   0  0  0  0  0  0  0  0  0  0  0  0
    1.8254   -5.2379   32.5158 H   0  0  0  0  0  0  0  0  0  0  0  0
    2.3309   -6.7561   33.2107 H   0  0  0  0  0  0  0  0  0  0  0  0
    1.9986   -5.2311   35.0059 H   0  0  0  0  0  0  0  0  0  0  0  0
    0.3492   -4.8139   34.5201 H   0  0  0  0  0  0  0  0  0  0  0  0
    1.2754   -5.3196   39.2374 H   0  0  0  0  0  0  0  0  0  0  0  0
    2.0383   -4.1682   38.1115 H   0  0  0  0  0  0  0  0  0  0  0  0
   -0.3596   -3.7734   39.9371 H   0  0  0  0  0  0  0  0  0  0  0  0
    1.0465   -2.7524   39.7159 H   0  0  0  0  0  0  0  0  0  0  0  0
    0.2257   -2.2232   37.5216 H   0  0  0  0  0  0  0  0  0  0  0  0
   -2.4111   -3.2287   38.0419 H   0  0  0  0  0  0  0  0  0  0  0  0
   -1.5595   -2.9837   36.5276 H   0  0  0  0  0  0  0  0  0  0  0  0
   -1.6901   -5.3061   36.6399 H   0  0  0  0  0  0  0  0  0  0  0  0
   -1.4736   -5.3739   38.3994 H   0  0  0  0  0  0  0  0  0  0  0  0
   -0.9482   -8.2673   35.1715 H   0  0  0  0  0  0  0  0  0  0  0  0
   -1.6079   -6.6272   35.0121 H   0  0  0  0  0  0  0  0  0  0  0  0
  1  2  2  0
  2  3  1  0
  3  4  1  0
  4  5  1  0
  5  6  2  0
  6  7  1  0
  7  8  2  0
  8  9  1  0
  9 10  2  0
 10 11  1  0
 11 12  2  0
 12 13  1  0
  8 14  1  0
  4 15  1  0
 15 16  1  0
 16 17  1  0
  2 18  1  0
 18 19  1  0
 18 20  1  0
 20 21  1  0
 21 22  1  0
 22 23  1  0
 23 24  1  0
 24 25  2  0
 25 26  1  0
 26 27  2  0
 27 28  1  0
 28 29  1  0
 29 30  1  0
 30 31  1  0
 31 32  2  0
 31 33  2  0
 31 34  1  0
 34 35  1  0
 35 36  1  0
 36 37  1  0
 37 38  1  0
 38 39  1  0
 30 40  1  0
 17  4  1  0
 27 23  1  0
 39 34  1  0
 14  5  1  0
 40 26  1  0
 13  9  1  0
  3 41  1  0
 10 42  1  0
 11 43  1  0
 12 44  1  0
 14 45  1  0
 15 46  1  0
 15 47  1  0
 16 48  1  0
 16 49  1  0
 17 50  1  0
 17 51  1  0
 18 52  1  0
 21 53  1  0
 21 54  1  0
 22 55  1  0
 22 56  1  0
 28 57  1  0
 28 58  1  0
 29 59  1  0
 29 60  1  0
 35 61  1  0
 35 62  1  0
 36 63  1  0
 36 64  1  0
 37 65  1  0
 38 66  1  0
 38 67  1  0
 39 68  1  0
 39 69  1  0
 40 70  1  0
 40 71  1  0
M  END
>  <Energy>  (275) 
14.191670102517101

>  <compound_id>  (275) 
2515

>  <target_id>  (275) 
1

>  <reference_id>  (275) 
168

>  <inspiration_ids>  (275) 
[168, 156]

>  <energy_score>  (275) 
-40.72165805335867

>  <distance_score>  (275) 
1.5557167051702183

>  <path>  (275) 
/opt/xchem-fragalysis-2/maxwin/BulkDock/SCRATCH/505736/C2515-P168/C2515-P168.minimised.mol

>  <scratch_subdir>  (275) 
/opt/xchem-fragalysis-2/maxwin/BulkDock/SCRATCH/505736/C2515-P168

>  <fragmenstein_runtime>  (275) 
5.508125305175781

>  <fragmenstein_outcome>  (275) 
too moved

>  <fragmenstein_mode>  (275) 
expansion

>  <fragmenstein_error>  (275) 


$$$$
C2515-P156
     RDKit          3D

 71 76  0  0  0  0  0  0  0  0999 V2000
    1.3005   -4.2002   28.1080 O   0  0  0  0  0  0  0  0  0  0  0  0
    0.9936   -4.4508   29.2028 C   0  0  0  0  0  0  0  0  0  0  0  0
    0.1535   -3.6484   30.2114 N   0  0  0  0  0  0  0  0  0  0  0  0
   -0.4049   -2.3294   30.1197 C   0  0  0  0  0  0  0  0  0  0  0  0
    0.1144   -1.7862   31.4631 C   0  0  0  0  0  0  0  0  0  0  0  0
   -0.4810   -1.9653   32.6218 N   0  0  0  0  0  0  0  0  0  0  0  0
    0.5072   -2.2207   33.5404 N   0  0  0  0  0  0  0  0  0  0  0  0
    1.6584   -2.1189   32.9192 C   0  0  0  0  0  0  0  0  0  0  0  0
    2.9253   -2.4540   33.4428 C   0  0  0  0  0  0  0  0  0  0  0  0
    3.2706   -2.4537   34.7727 C   0  0  0  0  0  0  0  0  0  0  0  0
    4.6225   -2.8386   34.9589 C   0  0  0  0  0  0  0  0  0  0  0  0
    5.2488   -3.1416   33.7684 C   0  0  0  0  0  0  0  0  0  0  0  0
    4.2053   -2.9675   32.4335 S   0  0  0  0  0  0  0  0  0  0  0  0
    1.4573   -1.6579   31.6575 N   0  0  0  0  0  0  0  0  0  0  0  0
   -0.0964   -1.4602   28.8933 C   0  0  0  0  0  0  0  0  0  0  0  0
   -1.5206   -0.9024   29.0256 C   0  0  0  0  0  0  0  0  0  0  0  0
   -1.8668   -2.1626   29.8517 C   0  0  0  0  0  0  0  0  0  0  0  0
    1.4729   -5.6733   29.9801 C   0  0  0  0  0  0  0  0  0  0  0  0
    3.2936   -5.4928   29.6656 Cl  0  0  0  0  0  0  0  0  0  0  0  0
    1.0445   -7.3389   29.5016 S   0  0  0  0  0  0  0  0  0  0  0  0
   -0.6156   -7.7143   30.0065 C   0  0  0  0  0  0  0  0  0  0  0  0
   -0.8511   -7.9210   31.4768 C   0  0  0  0  0  0  0  0  0  0  0  0
   -0.7058   -6.7102   32.2041 N   0  0  0  0  0  0  0  0  0  0  0  0
   -1.3890   -5.6468   31.7993 N   0  0  0  0  0  0  0  0  0  0  0  0
   -1.4926   -4.8429   32.8377 N   0  0  0  0  0  0  0  0  0  0  0  0
   -0.7250   -5.3564   33.8290 C   0  0  0  0  0  0  0  0  0  0  0  0
   -0.0146   -6.4033   33.3105 C   0  0  0  0  0  0  0  0  0  0  0  0
    1.2640   -6.8478   33.8510 C   0  0  0  0  0  0  0  0  0  0  0  0
    1.8103   -5.6713   34.6736 C   0  0  0  0  0  0  0  0  0  0  0  0
    0.8329   -5.2245   35.7045 N   0  0  0  0  0  0  0  0  0  0  0  0
    0.7975   -6.1916   37.0695 S   0  0  0  0  0  0  0  0  0  0  0  0
    2.1617   -6.6067   37.3035 O   0  0  0  0  0  0  0  0  0  0  0  0
   -0.2584   -7.1581   36.9000 O   0  0  0  0  0  0  0  0  0  0  0  0
    0.3991   -5.0645   38.2126 N   0  0  0  0  0  0  0  0  0  0  0  0
    1.3866   -4.0278   38.5707 C   0  0  0  0  0  0  0  0  0  0  0  0
    0.7111   -2.7644   39.1328 C   0  0  0  0  0  0  0  0  0  0  0  0
   -0.4217   -2.3172   38.3079 N   0  0  0  0  0  0  0  0  0  0  0  0
   -1.4543   -3.3681   38.2585 C   0  0  0  0  0  0  0  0  0  0  0  0
   -0.9951   -4.8012   38.5959 C   0  0  0  0  0  0  0  0  0  0  0  0
   -0.4951   -4.7682   35.1647 C   0  0  0  0  0  0  0  0  0  0  0  0
    0.0110   -4.2057   31.0566 H   0  0  0  0  0  0  0  0  0  0  0  0
    2.5893   -2.1772   35.5697 H   0  0  0  0  0  0  0  0  0  0  0  0
    5.1188   -2.8965   35.9209 H   0  0  0  0  0  0  0  0  0  0  0  0
    6.2732   -3.4602   33.6267 H   0  0  0  0  0  0  0  0  0  0  0  0
    2.1589   -1.6057   30.9345 H   0  0  0  0  0  0  0  0  0  0  0  0
    0.7020   -0.7186   28.9859 H   0  0  0  0  0  0  0  0  0  0  0  0
    0.0507   -2.0107   27.9647 H   0  0  0  0  0  0  0  0  0  0  0  0
   -1.5819    0.0324   29.5937 H   0  0  0  0  0  0  0  0  0  0  0  0
   -2.0528   -0.7900   28.0788 H   0  0  0  0  0  0  0  0  0  0  0  0
   -2.2740   -2.9755   29.2563 H   0  0  0  0  0  0  0  0  0  0  0  0
   -2.4812   -2.0054   30.7418 H   0  0  0  0  0  0  0  0  0  0  0  0
    1.4263   -5.5461   31.0584 H   0  0  0  0  0  0  0  0  0  0  0  0
   -1.3111   -7.0236   29.5397 H   0  0  0  0  0  0  0  0  0  0  0  0
   -0.7620   -8.6825   29.5257 H   0  0  0  0  0  0  0  0  0  0  0  0
   -0.2012   -8.6586   31.9149 H   0  0  0  0  0  0  0  0  0  0  0  0
   -1.8736   -8.2699   31.6584 H   0  0  0  0  0  0  0  0  0  0  0  0
    1.1620   -7.7465   34.4607 H   0  0  0  0  0  0  0  0  0  0  0  0
    1.9658   -7.0021   33.0360 H   0  0  0  0  0  0  0  0  0  0  0  0
    2.7840   -5.9169   35.1081 H   0  0  0  0  0  0  0  0  0  0  0  0
    2.0004   -4.8334   34.0022 H   0  0  0  0  0  0  0  0  0  0  0  0
    2.0787   -4.4341   39.3159 H   0  0  0  0  0  0  0  0  0  0  0  0
    1.9697   -3.7445   37.6871 H   0  0  0  0  0  0  0  0  0  0  0  0
    0.3679   -2.9398   40.1603 H   0  0  0  0  0  0  0  0  0  0  0  0
    1.4499   -1.9572   39.1896 H   0  0  0  0  0  0  0  0  0  0  0  0
   -0.0817   -2.1678   37.3557 H   0  0  0  0  0  0  0  0  0  0  0  0
   -2.2635   -3.0932   38.9453 H   0  0  0  0  0  0  0  0  0  0  0  0
   -1.9026   -3.3497   37.2594 H   0  0  0  0  0  0  0  0  0  0  0  0
   -1.6611   -5.5146   38.1200 H   0  0  0  0  0  0  0  0  0  0  0  0
   -1.0782   -4.9700   39.6767 H   0  0  0  0  0  0  0  0  0  0  0  0
   -1.3145   -5.0816   35.8153 H   0  0  0  0  0  0  0  0  0  0  0  0
   -0.5076   -3.6786   35.1440 H   0  0  0  0  0  0  0  0  0  0  0  0
  1  2  2  0
  2  3  1  0
  3  4  1  0
  4  5  1  0
  5  6  2  0
  6  7  1  0
  7  8  2  0
  8  9  1  0
  9 10  2  0
 10 11  1  0
 11 12  2  0
 12 13  1  0
  8 14  1  0
  4 15  1  0
 15 16  1  0
 16 17  1  0
  2 18  1  0
 18 19  1  0
 18 20  1  0
 20 21  1  0
 21 22  1  0
 22 23  1  0
 23 24  1  0
 24 25  2  0
 25 26  1  0
 26 27  2  0
 27 28  1  0
 28 29  1  0
 29 30  1  0
 30 31  1  0
 31 32  2  0
 31 33  2  0
 31 34  1  0
 34 35  1  0
 35 36  1  0
 36 37  1  0
 37 38  1  0
 38 39  1  0
 30 40  1  0
 17  4  1  0
 27 23  1  0
 39 34  1  0
 14  5  1  0
 40 26  1  0
 13  9  1  0
  3 41  1  0
 10 42  1  0
 11 43  1  0
 12 44  1  0
 14 45  1  0
 15 46  1  0
 15 47  1  0
 16 48  1  0
 16 49  1  0
 17 50  1  0
 17 51  1  0
 18 52  1  0
 21 53  1  0
 21 54  1  0
 22 55  1  0
 22 56  1  0
 28 57  1  0
 28 58  1  0
 29 59  1  0
 29 60  1  0
 35 61  1  0
 35 62  1  0
 36 63  1  0
 36 64  1  0
 37 65  1  0
 38 66  1  0
 38 67  1  0
 39 68  1  0
 39 69  1  0
 40 70  1  0
 40 71  1  0
M  END
>  <Energy>  (276) 
8.9923779610792565

>  <compound_id>  (276) 
2515

>  <target_id>  (276) 
1

>  <reference_id>  (276) 
156

>  <inspiration_ids>  (276) 
[168, 156]

>  <energy_score>  (276) 
-45.92095019479504

>  <distance_score>  (276) 
2.118451306640364

>  <path>  (276) 
/opt/xchem-fragalysis-2/maxwin/BulkDock/SCRATCH/505736/C2515-P156/C2515-P156.minimised.mol

>  <scratch_subdir>  (276) 
/opt/xchem-fragalysis-2/maxwin/BulkDock/SCRATCH/505736/C2515-P156

>  <fragmenstein_runtime>  (276) 
6.409921407699585

>  <fragmenstein_outcome>  (276) 
too moved

>  <fragmenstein_mode>  (276) 
expansion

>  <fragmenstein_error>  (276) 


$$$$
C2516-P168
     RDKit          3D

 63 67  0  0  0  0  0  0  0  0999 V2000
    2.4249   -6.4931   36.7587 O   0  0  0  0  0  0  0  0  0  0  0  0
    0.9799   -6.4953   36.7358 S   0  0  0  0  0  0  0  0  0  0  0  0
    0.2060   -7.5653   37.3103 O   0  0  0  0  0  0  0  0  0  0  0  0
    0.4537   -5.0409   37.3917 N   0  0  0  0  0  0  0  0  0  0  0  0
    1.2879   -4.5379   38.5318 C   0  0  0  0  0  0  0  0  0  0  0  0
    0.4965   -3.6448   39.5108 C   0  0  0  0  0  0  0  0  0  0  0  0
   -0.4107   -2.7065   38.8423 N   0  0  0  0  0  0  0  0  0  0  0  0
   -1.3363   -3.4141   37.9431 C   0  0  0  0  0  0  0  0  0  0  0  0
   -0.9966   -4.8915   37.6461 C   0  0  0  0  0  0  0  0  0  0  0  0
    0.5507   -6.3157   35.1360 N   0  0  0  0  0  0  0  0  0  0  0  0
    0.8857   -5.0149   34.4892 C   0  0  0  0  0  0  0  0  0  0  0  0
    1.1306   -5.1932   32.9795 C   0  0  0  0  0  0  0  0  0  0  0  0
    0.0846   -6.0770   32.4236 C   0  0  0  0  0  0  0  0  0  0  0  0
   -0.7146   -6.9120   33.1686 C   0  0  0  0  0  0  0  0  0  0  0  0
   -1.4942   -7.6527   32.3314 N   0  0  0  0  0  0  0  0  0  0  0  0
   -1.1861   -7.3117   31.0815 N   0  0  0  0  0  0  0  0  0  0  0  0
   -0.2536   -6.3324   31.1329 N   0  0  0  0  0  0  0  0  0  0  0  0
    0.4111   -5.9021   29.9292 C   0  0  0  0  0  0  0  0  0  0  0  0
    0.3561   -4.4009   29.6022 C   0  0  0  0  0  0  0  0  0  0  0  0
    1.3569   -4.1511   28.5486 N   0  0  0  0  0  0  0  0  0  0  0  0
    2.5258   -3.8515   28.9179 C   0  0  0  0  0  0  0  0  0  0  0  0
    2.6677   -2.4592   29.6662 C   0  0  0  0  0  0  0  0  0  0  0  0
    3.3924   -2.6829   31.3174 S   0  0  0  0  0  0  0  0  0  0  0  0
    3.6578   -1.3343   28.7214 Cl  0  0  0  0  0  0  0  0  0  0  0  0
    3.7395   -4.6050   28.8581 N   0  0  0  0  0  0  0  0  0  0  0  0
    3.9983   -6.0285   28.4432 C   0  0  0  0  0  0  0  0  0  0  0  0
    5.4133   -6.5560   28.7666 C   0  0  0  0  0  0  0  0  0  0  0  0
    6.0840   -6.2760   27.5160 C   0  0  0  0  0  0  0  0  0  0  0  0
    7.0009   -7.3633   26.6245 S   0  0  0  0  0  0  0  0  0  0  0  0
    6.7176   -6.4112   25.2391 C   0  0  0  0  0  0  0  0  0  0  0  0
    6.1841   -5.1804   25.5523 C   0  0  0  0  0  0  0  0  0  0  0  0
    5.6514   -5.1716   26.8411 C   0  0  0  0  0  0  0  0  0  0  0  0
    4.5487   -4.3029   27.4094 C   0  0  0  0  0  0  0  0  0  0  0  0
   -0.6783   -7.0058   34.6558 C   0  0  0  0  0  0  0  0  0  0  0  0
    2.1120   -3.9577   38.1000 H   0  0  0  0  0  0  0  0  0  0  0  0
    1.7135   -5.3732   39.0994 H   0  0  0  0  0  0  0  0  0  0  0  0
   -0.0810   -4.2755   40.1989 H   0  0  0  0  0  0  0  0  0  0  0  0
    1.2045   -3.0820   40.1292 H   0  0  0  0  0  0  0  0  0  0  0  0
   -0.9366   -2.1771   39.5365 H   0  0  0  0  0  0  0  0  0  0  0  0
   -1.3577   -2.8582   36.9984 H   0  0  0  0  0  0  0  0  0  0  0  0
   -2.3499   -3.3667   38.3574 H   0  0  0  0  0  0  0  0  0  0  0  0
   -1.2865   -5.5215   38.4950 H   0  0  0  0  0  0  0  0  0  0  0  0
   -1.5761   -5.2010   36.7751 H   0  0  0  0  0  0  0  0  0  0  0  0
    0.0520   -4.3192   34.6502 H   0  0  0  0  0  0  0  0  0  0  0  0
    1.7831   -4.5707   34.9332 H   0  0  0  0  0  0  0  0  0  0  0  0
    1.1167   -4.2099   32.5095 H   0  0  0  0  0  0  0  0  0  0  0  0
    2.1141   -5.6472   32.8129 H   0  0  0  0  0  0  0  0  0  0  0  0
    1.4489   -6.2134   30.0577 H   0  0  0  0  0  0  0  0  0  0  0  0
    0.0114   -6.4794   29.0862 H   0  0  0  0  0  0  0  0  0  0  0  0
   -0.6342   -4.1365   29.2169 H   0  0  0  0  0  0  0  0  0  0  0  0
    0.5141   -3.7842   30.4885 H   0  0  0  0  0  0  0  0  0  0  0  0
    1.6870   -1.9878   29.7729 H   0  0  0  0  0  0  0  0  0  0  0  0
    3.6957   -1.3896   31.4974 H   0  0  0  0  0  0  0  0  0  0  0  0
    3.3463   -6.5688   29.1210 H   0  0  0  0  0  0  0  0  0  0  0  0
    3.5530   -6.3313   27.4752 H   0  0  0  0  0  0  0  0  0  0  0  0
    5.4109   -7.6259   28.9625 H   0  0  0  0  0  0  0  0  0  0  0  0
    5.8804   -6.0239   29.6009 H   0  0  0  0  0  0  0  0  0  0  0  0
    6.9870   -6.7600   24.2615 H   0  0  0  0  0  0  0  0  0  0  0  0
    6.0671   -4.3948   24.8349 H   0  0  0  0  0  0  0  0  0  0  0  0
    5.0090   -3.3240   27.5738 H   0  0  0  0  0  0  0  0  0  0  0  0
    3.7635   -4.1685   26.6499 H   0  0  0  0  0  0  0  0  0  0  0  0
   -1.5730   -6.5453   35.0757 H   0  0  0  0  0  0  0  0  0  0  0  0
   -0.6469   -8.0593   34.9411 H   0  0  0  0  0  0  0  0  0  0  0  0
  1  2  2  0
  2  3  2  0
  2  4  1  0
  4  5  1  0
  5  6  1  0
  6  7  1  0
  7  8  1  0
  8  9  1  0
  2 10  1  0
 10 11  1  0
 11 12  1  0
 12 13  1  0
 13 14  2  0
 14 15  1  0
 15 16  2  0
 16 17  1  0
 17 18  1  0
 18 19  1  0
 19 20  1  0
 20 21  2  3
 21 22  1  0
 22 23  1  0
 22 24  1  0
 21 25  1  0
 25 26  1  0
 26 27  1  0
 27 28  1  0
 28 29  1  0
 29 30  1  0
 30 31  2  0
 31 32  1  0
 32 33  1  0
 14 34  1  0
  9  4  1  0
 34 10  1  0
 17 13  1  0
 33 25  1  0
 32 28  2  0
  5 35  1  0
  5 36  1  0
  6 37  1  0
  6 38  1  0
  7 39  1  0
  8 40  1  0
  8 41  1  0
  9 42  1  0
  9 43  1  0
 11 44  1  0
 11 45  1  0
 12 46  1  0
 12 47  1  0
 18 48  1  0
 18 49  1  0
 19 50  1  0
 19 51  1  0
 22 52  1  0
 23 53  1  0
 26 54  1  0
 26 55  1  0
 27 56  1  0
 27 57  1  0
 30 58  1  0
 31 59  1  0
 33 60  1  0
 33 61  1  0
 34 62  1  0
 34 63  1  0
M  END
>  <Energy>  (277) 
88.621360496299118

>  <compound_id>  (277) 
2516

>  <target_id>  (277) 
1

>  <reference_id>  (277) 
168

>  <inspiration_ids>  (277) 
[168, 157]

>  <energy_score>  (277) 
-13.691117710731874

>  <distance_score>  (277) 
1.3140764878896838

>  <path>  (277) 
/opt/xchem-fragalysis-2/maxwin/BulkDock/SCRATCH/505736/C2516-P168/C2516-P168.minimised.mol

>  <scratch_subdir>  (277) 
/opt/xchem-fragalysis-2/maxwin/BulkDock/SCRATCH/505736/C2516-P168

>  <fragmenstein_runtime>  (277) 
6.307511568069458

>  <fragmenstein_outcome>  (277) 
too moved

>  <fragmenstein_mode>  (277) 
expansion

>  <fragmenstein_error>  (277) 


$$$$
C2516-P157
     RDKit          3D

 63 67  0  0  0  0  0  0  0  0999 V2000
    1.9185   -6.3142   36.0547 O   0  0  0  0  0  0  0  0  0  0  0  0
    0.5795   -6.3512   36.5971 S   0  0  0  0  0  0  0  0  0  0  0  0
    0.1390   -7.4313   37.4402 O   0  0  0  0  0  0  0  0  0  0  0  0
    0.2879   -4.9206   37.4169 N   0  0  0  0  0  0  0  0  0  0  0  0
    1.3605   -4.4234   38.3114 C   0  0  0  0  0  0  0  0  0  0  0  0
    0.8221   -3.4244   39.3642 C   0  0  0  0  0  0  0  0  0  0  0  0
   -0.2140   -2.5174   38.8532 N   0  0  0  0  0  0  0  0  0  0  0  0
   -1.3409   -3.2729   38.2763 C   0  0  0  0  0  0  0  0  0  0  0  0
   -1.0660   -4.7623   37.9911 C   0  0  0  0  0  0  0  0  0  0  0  0
   -0.5081   -6.1451   35.3370 N   0  0  0  0  0  0  0  0  0  0  0  0
   -0.3607   -4.8805   34.5578 C   0  0  0  0  0  0  0  0  0  0  0  0
    0.6000   -5.0119   33.3802 C   0  0  0  0  0  0  0  0  0  0  0  0
    0.1697   -6.1612   32.5785 C   0  0  0  0  0  0  0  0  0  0  0  0
   -0.5410   -7.2150   33.1044 C   0  0  0  0  0  0  0  0  0  0  0  0
   -0.9327   -8.0305   32.0854 N   0  0  0  0  0  0  0  0  0  0  0  0
   -0.4332   -7.5338   30.9522 N   0  0  0  0  0  0  0  0  0  0  0  0
    0.3025   -6.4258   31.2556 N   0  0  0  0  0  0  0  0  0  0  0  0
    0.9418   -5.7042   30.1749 C   0  0  0  0  0  0  0  0  0  0  0  0
    1.9047   -4.5176   30.4188 C   0  0  0  0  0  0  0  0  0  0  0  0
    3.3379   -4.8690   30.4022 N   0  0  0  0  0  0  0  0  0  0  0  0
    4.2700   -4.2138   30.8761 C   0  0  0  0  0  0  0  0  0  0  0  0
    4.1185   -2.8792   31.7009 C   0  0  0  0  0  0  0  0  0  0  0  0
    3.5502   -3.1646   33.3794 S   0  0  0  0  0  0  0  0  0  0  0  0
    3.2215   -1.6456   30.8391 Cl  0  0  0  0  0  0  0  0  0  0  0  0
    5.8066   -4.4721   30.8386 N   0  0  0  0  0  0  0  0  0  0  0  0
    6.6277   -5.6888   30.2838 C   0  0  0  0  0  0  0  0  0  0  0  0
    6.0059   -6.5000   29.1213 C   0  0  0  0  0  0  0  0  0  0  0  0
    5.9917   -5.6045   27.9641 C   0  0  0  0  0  0  0  0  0  0  0  0
    5.7457   -6.0682   26.3709 S   0  0  0  0  0  0  0  0  0  0  0  0
    6.0189   -4.4573   25.8676 C   0  0  0  0  0  0  0  0  0  0  0  0
    6.2165   -3.5789   26.9107 C   0  0  0  0  0  0  0  0  0  0  0  0
    6.2139   -4.2677   28.1463 C   0  0  0  0  0  0  0  0  0  0  0  0
    6.4951   -3.7727   29.5285 C   0  0  0  0  0  0  0  0  0  0  0  0
   -0.8737   -7.3781   34.5551 C   0  0  0  0  0  0  0  0  0  0  0  0
    2.1054   -3.9174   37.6864 H   0  0  0  0  0  0  0  0  0  0  0  0
    1.8493   -5.2558   38.8295 H   0  0  0  0  0  0  0  0  0  0  0  0
    0.4187   -3.9806   40.2204 H   0  0  0  0  0  0  0  0  0  0  0  0
    1.6597   -2.8329   39.7504 H   0  0  0  0  0  0  0  0  0  0  0  0
   -0.5525   -1.9134   39.6000 H   0  0  0  0  0  0  0  0  0  0  0  0
   -1.6183   -2.7742   37.3403 H   0  0  0  0  0  0  0  0  0  0  0  0
   -2.2097   -3.1988   38.9407 H   0  0  0  0  0  0  0  0  0  0  0  0
   -1.1509   -5.3525   38.9111 H   0  0  0  0  0  0  0  0  0  0  0  0
   -1.8188   -5.1114   37.2839 H   0  0  0  0  0  0  0  0  0  0  0  0
   -1.3488   -4.6037   34.1845 H   0  0  0  0  0  0  0  0  0  0  0  0
   -0.0488   -4.0414   35.1857 H   0  0  0  0  0  0  0  0  0  0  0  0
    0.5308   -4.0721   32.8349 H   0  0  0  0  0  0  0  0  0  0  0  0
    1.6202   -5.1779   33.7270 H   0  0  0  0  0  0  0  0  0  0  0  0
    1.4574   -6.4505   29.5662 H   0  0  0  0  0  0  0  0  0  0  0  0
    0.0977   -5.3120   29.5937 H   0  0  0  0  0  0  0  0  0  0  0  0
    1.7617   -3.8498   29.5585 H   0  0  0  0  0  0  0  0  0  0  0  0
    1.6334   -3.9391   31.2896 H   0  0  0  0  0  0  0  0  0  0  0  0
    5.1176   -2.4491   31.8214 H   0  0  0  0  0  0  0  0  0  0  0  0
    4.4589   -4.1063   33.6734 H   0  0  0  0  0  0  0  0  0  0  0  0
    7.7117   -5.5102   30.1673 H   0  0  0  0  0  0  0  0  0  0  0  0
    6.6358   -6.3682   31.1454 H   0  0  0  0  0  0  0  0  0  0  0  0
    4.9825   -6.8138   29.3219 H   0  0  0  0  0  0  0  0  0  0  0  0
    6.6107   -7.3939   28.9342 H   0  0  0  0  0  0  0  0  0  0  0  0
    6.0647   -4.2483   24.8167 H   0  0  0  0  0  0  0  0  0  0  0  0
    6.4119   -2.5228   26.7722 H   0  0  0  0  0  0  0  0  0  0  0  0
    7.5697   -3.6080   29.7090 H   0  0  0  0  0  0  0  0  0  0  0  0
    6.0922   -2.7498   29.5675 H   0  0  0  0  0  0  0  0  0  0  0  0
   -1.9468   -7.5516   34.6789 H   0  0  0  0  0  0  0  0  0  0  0  0
   -0.3436   -8.2473   34.9496 H   0  0  0  0  0  0  0  0  0  0  0  0
  1  2  2  0
  2  3  2  0
  2  4  1  0
  4  5  1  0
  5  6  1  0
  6  7  1  0
  7  8  1  0
  8  9  1  0
  2 10  1  0
 10 11  1  0
 11 12  1  0
 12 13  1  0
 13 14  2  0
 14 15  1  0
 15 16  2  0
 16 17  1  0
 17 18  1  0
 18 19  1  0
 19 20  1  0
 20 21  2  3
 21 22  1  0
 22 23  1  0
 22 24  1  0
 21 25  1  0
 25 26  1  0
 26 27  1  0
 27 28  1  0
 28 29  1  0
 29 30  1  0
 30 31  2  0
 31 32  1  0
 32 33  1  0
 14 34  1  0
  9  4  1  0
 34 10  1  0
 17 13  1  0
 33 25  1  0
 32 28  2  0
  5 35  1  0
  5 36  1  0
  6 37  1  0
  6 38  1  0
  7 39  1  0
  8 40  1  0
  8 41  1  0
  9 42  1  0
  9 43  1  0
 11 44  1  0
 11 45  1  0
 12 46  1  0
 12 47  1  0
 18 48  1  0
 18 49  1  0
 19 50  1  0
 19 51  1  0
 22 52  1  0
 23 53  1  0
 26 54  1  0
 26 55  1  0
 27 56  1  0
 27 57  1  0
 30 58  1  0
 31 59  1  0
 33 60  1  0
 33 61  1  0
 34 62  1  0
 34 63  1  0
M  END
>  <Energy>  (278) 
72.993488679723555

>  <compound_id>  (278) 
2516

>  <target_id>  (278) 
1

>  <reference_id>  (278) 
157

>  <inspiration_ids>  (278) 
[168, 157]

>  <energy_score>  (278) 
0.5068599078047953

>  <distance_score>  (278) 
1.1937669139532632

>  <path>  (278) 
/opt/xchem-fragalysis-2/maxwin/BulkDock/SCRATCH/505736/C2516-P157/C2516-P157.minimised.mol

>  <scratch_subdir>  (278) 
/opt/xchem-fragalysis-2/maxwin/BulkDock/SCRATCH/505736/C2516-P157

>  <fragmenstein_runtime>  (278) 
3.86460542678833

>  <fragmenstein_outcome>  (278) 
too moved

>  <fragmenstein_mode>  (278) 
expansion

>  <fragmenstein_error>  (278) 


$$$$
C2519-P168
     RDKit          3D

 56 59  0  0  0  0  0  0  0  0999 V2000
   -2.2830   -7.4615   35.7080 O   0  0  0  0  0  0  0  0  0  0  0  0
   -1.0289   -6.7901   35.9650 S   0  0  0  0  0  0  0  0  0  0  0  0
    0.1436   -7.1837   35.2456 O   0  0  0  0  0  0  0  0  0  0  0  0
   -1.3522   -5.1573   35.6956 N   0  0  0  0  0  0  0  0  0  0  0  0
   -0.7937   -4.4260   34.5158 C   0  0  0  0  0  0  0  0  0  0  0  0
   -1.1768   -4.9490   33.1176 C   0  0  0  0  0  0  0  0  0  0  0  0
   -0.1469   -5.4831   32.2439 N   0  0  0  0  0  0  0  0  0  0  0  0
   -0.2864   -6.7780   31.8746 N   0  0  0  0  0  0  0  0  0  0  0  0
    0.6494   -7.4012   32.5741 N   0  0  0  0  0  0  0  0  0  0  0  0
    1.5333   -6.4408   32.9975 C   0  0  0  0  0  0  0  0  0  0  0  0
    1.1867   -5.2282   32.4377 C   0  0  0  0  0  0  0  0  0  0  0  0
    1.8329   -3.9322   32.7579 C   0  0  0  0  0  0  0  0  0  0  0  0
    2.6906   -4.0495   34.0532 C   0  0  0  0  0  0  0  0  0  0  0  0
    2.2548   -5.2084   34.9104 N   0  0  0  0  0  0  0  0  0  0  0  0
    2.8345   -5.2452   36.4785 S   0  0  0  0  0  0  0  0  0  0  0  0
    4.2637   -5.1186   36.3645 O   0  0  0  0  0  0  0  0  0  0  0  0
    2.2554   -6.3626   37.1708 O   0  0  0  0  0  0  0  0  0  0  0  0
    2.2034   -3.8011   37.1069 N   0  0  0  0  0  0  0  0  0  0  0  0
    3.0351   -3.1398   38.1593 C   0  0  0  0  0  0  0  0  0  0  0  0
    2.1819   -2.1947   39.0626 C   0  0  0  0  0  0  0  0  0  0  0  0
    1.0571   -1.5315   38.3663 N   0  0  0  0  0  0  0  0  0  0  0  0
    0.1624   -2.5490   37.7865 C   0  0  0  0  0  0  0  0  0  0  0  0
    0.8283   -3.9158   37.6213 C   0  0  0  0  0  0  0  0  0  0  0  0
    2.4630   -6.5019   34.1661 C   0  0  0  0  0  0  0  0  0  0  0  0
   -0.5895   -6.8670   37.7110 C   0  0  0  0  0  0  0  0  0  0  0  0
   -1.0642   -5.9757   38.6815 C   0  0  0  0  0  0  0  0  0  0  0  0
   -0.7009   -6.1419   40.0282 C   0  0  0  0  0  0  0  0  0  0  0  0
    0.1359   -7.1865   40.4000 C   0  0  0  0  0  0  0  0  0  0  0  0
    0.4420   -7.3247   41.7198 O   0  0  0  0  0  0  0  0  0  0  0  0
    0.6362   -8.0586   39.4500 C   0  0  0  0  0  0  0  0  0  0  0  0
    0.2720   -7.8904   38.1148 C   0  0  0  0  0  0  0  0  0  0  0  0
   -2.3679   -5.0361   35.6675 H   0  0  0  0  0  0  0  0  0  0  0  0
    0.2488   -4.2509   34.6885 H   0  0  0  0  0  0  0  0  0  0  0  0
   -1.2273   -3.4178   34.5952 H   0  0  0  0  0  0  0  0  0  0  0  0
   -1.6181   -4.1326   32.5364 H   0  0  0  0  0  0  0  0  0  0  0  0
   -1.8784   -5.7735   33.2308 H   0  0  0  0  0  0  0  0  0  0  0  0
    2.4757   -3.6182   31.9275 H   0  0  0  0  0  0  0  0  0  0  0  0
    1.0870   -3.1387   32.8797 H   0  0  0  0  0  0  0  0  0  0  0  0
    3.7444   -4.1821   33.7766 H   0  0  0  0  0  0  0  0  0  0  0  0
    2.6150   -3.1060   34.6034 H   0  0  0  0  0  0  0  0  0  0  0  0
    3.8007   -2.5467   37.6462 H   0  0  0  0  0  0  0  0  0  0  0  0
    3.5308   -3.8829   38.7937 H   0  0  0  0  0  0  0  0  0  0  0  0
    1.7885   -2.7553   39.9207 H   0  0  0  0  0  0  0  0  0  0  0  0
    2.8387   -1.4270   39.4876 H   0  0  0  0  0  0  0  0  0  0  0  0
    1.4634   -1.0069   37.5898 H   0  0  0  0  0  0  0  0  0  0  0  0
   -0.1816   -2.1833   36.8119 H   0  0  0  0  0  0  0  0  0  0  0  0
   -0.7279   -2.6495   38.4168 H   0  0  0  0  0  0  0  0  0  0  0  0
    0.8755   -4.4200   38.5889 H   0  0  0  0  0  0  0  0  0  0  0  0
    0.2638   -4.4957   36.9311 H   0  0  0  0  0  0  0  0  0  0  0  0
    3.4998   -6.5117   33.8320 H   0  0  0  0  0  0  0  0  0  0  0  0
    2.3187   -7.3917   34.7799 H   0  0  0  0  0  0  0  0  0  0  0  0
   -1.7314   -5.1629   38.4148 H   0  0  0  0  0  0  0  0  0  0  0  0
   -1.0899   -5.4648   40.7845 H   0  0  0  0  0  0  0  0  0  0  0  0
    0.9083   -8.1725   41.8283 H   0  0  0  0  0  0  0  0  0  0  0  0
    1.2984   -8.8776   39.7162 H   0  0  0  0  0  0  0  0  0  0  0  0
    0.6964   -8.5551   37.3779 H   0  0  0  0  0  0  0  0  0  0  0  0
  1  2  2  0
  2  3  2  0
  2  4  1  0
  4  5  1  0
  5  6  1  0
  6  7  1  0
  7  8  1  0
  8  9  2  0
  9 10  1  0
 10 11  2  0
 11 12  1  0
 12 13  1  0
 13 14  1  0
 14 15  1  0
 15 16  2  0
 15 17  2  0
 15 18  1  0
 18 19  1  0
 19 20  1  0
 20 21  1  0
 21 22  1  0
 22 23  1  0
 14 24  1  0
  2 25  1  0
 25 26  2  0
 26 27  1  0
 27 28  2  0
 28 29  1  0
 28 30  1  0
 30 31  2  0
 11  7  1  0
 23 18  1  0
 31 25  1  0
 24 10  1  0
  4 32  1  0
  5 33  1  0
  5 34  1  0
  6 35  1  0
  6 36  1  0
 12 37  1  0
 12 38  1  0
 13 39  1  0
 13 40  1  0
 19 41  1  0
 19 42  1  0
 20 43  1  0
 20 44  1  0
 21 45  1  0
 22 46  1  0
 22 47  1  0
 23 48  1  0
 23 49  1  0
 24 50  1  0
 24 51  1  0
 26 52  1  0
 27 53  1  0
 29 54  1  0
 30 55  1  0
 31 56  1  0
M  END
>  <Energy>  (279) 
-52.781990586573748

>  <compound_id>  (279) 
2519

>  <target_id>  (279) 
1

>  <reference_id>  (279) 
168

>  <inspiration_ids>  (279) 
[168, 164]

>  <energy_score>  (279) 
-12.840499464278508

>  <distance_score>  (279) 
2.3767154076319814

>  <path>  (279) 
/opt/xchem-fragalysis-2/maxwin/BulkDock/SCRATCH/505736/C2519-P168/C2519-P168.minimised.mol

>  <scratch_subdir>  (279) 
/opt/xchem-fragalysis-2/maxwin/BulkDock/SCRATCH/505736/C2519-P168

>  <fragmenstein_runtime>  (279) 
43.66864252090454

>  <fragmenstein_outcome>  (279) 
too moved

>  <fragmenstein_mode>  (279) 
expansion

>  <fragmenstein_error>  (279) 


$$$$
C2519-P164
     RDKit          3D

 56 59  0  0  0  0  0  0  0  0999 V2000
   -1.4826   -5.4896   36.0336 O   0  0  0  0  0  0  0  0  0  0  0  0
   -1.0674   -6.8672   36.1191 S   0  0  0  0  0  0  0  0  0  0  0  0
   -2.0455   -7.9152   35.9121 O   0  0  0  0  0  0  0  0  0  0  0  0
    0.0103   -7.1201   34.8837 N   0  0  0  0  0  0  0  0  0  0  0  0
   -0.5171   -7.7752   33.6770 C   0  0  0  0  0  0  0  0  0  0  0  0
   -1.4741   -6.9617   32.8274 C   0  0  0  0  0  0  0  0  0  0  0  0
   -0.8012   -6.2035   31.7819 N   0  0  0  0  0  0  0  0  0  0  0  0
   -0.1019   -6.9442   30.8912 N   0  0  0  0  0  0  0  0  0  0  0  0
    1.1570   -6.8056   31.2876 N   0  0  0  0  0  0  0  0  0  0  0  0
    1.1921   -5.7543   32.1541 C   0  0  0  0  0  0  0  0  0  0  0  0
   -0.0278   -5.1069   32.1041 C   0  0  0  0  0  0  0  0  0  0  0  0
   -0.3670   -3.9113   32.9179 C   0  0  0  0  0  0  0  0  0  0  0  0
    0.8993   -3.5095   33.7195 C   0  0  0  0  0  0  0  0  0  0  0  0
    1.4139   -4.7555   34.3411 N   0  0  0  0  0  0  0  0  0  0  0  0
    2.0878   -4.8335   35.8487 S   0  0  0  0  0  0  0  0  0  0  0  0
    3.2670   -4.0093   35.7995 O   0  0  0  0  0  0  0  0  0  0  0  0
    2.2330   -6.2471   36.1422 O   0  0  0  0  0  0  0  0  0  0  0  0
    1.0491   -4.2028   37.0031 N   0  0  0  0  0  0  0  0  0  0  0  0
    1.7351   -4.0136   38.3351 C   0  0  0  0  0  0  0  0  0  0  0  0
    1.0797   -2.9411   39.2310 C   0  0  0  0  0  0  0  0  0  0  0  0
   -0.3795   -2.9669   39.2357 N   0  0  0  0  0  0  0  0  0  0  0  0
   -0.9147   -2.8746   37.8752 C   0  0  0  0  0  0  0  0  0  0  0  0
    0.0943   -3.1097   36.7277 C   0  0  0  0  0  0  0  0  0  0  0  0
    2.1648   -5.5310   33.2704 C   0  0  0  0  0  0  0  0  0  0  0  0
   -0.2265   -7.0855   37.6833 C   0  0  0  0  0  0  0  0  0  0  0  0
   -0.6419   -6.3537   38.8084 C   0  0  0  0  0  0  0  0  0  0  0  0
   -0.0887   -6.5927   40.0719 C   0  0  0  0  0  0  0  0  0  0  0  0
    0.9248   -7.5293   40.1976 C   0  0  0  0  0  0  0  0  0  0  0  0
    1.5120   -7.7803   41.4005 O   0  0  0  0  0  0  0  0  0  0  0  0
    1.3889   -8.2156   39.0860 C   0  0  0  0  0  0  0  0  0  0  0  0
    0.8092   -7.9967   37.8340 C   0  0  0  0  0  0  0  0  0  0  0  0
    0.9640   -7.3111   35.1959 H   0  0  0  0  0  0  0  0  0  0  0  0
   -1.0567   -8.6571   33.9678 H   0  0  0  0  0  0  0  0  0  0  0  0
    0.3356   -8.1129   33.1040 H   0  0  0  0  0  0  0  0  0  0  0  0
   -2.0053   -6.2524   33.4443 H   0  0  0  0  0  0  0  0  0  0  0  0
   -2.1644   -7.6310   32.3044 H   0  0  0  0  0  0  0  0  0  0  0  0
   -0.6779   -3.0848   32.2712 H   0  0  0  0  0  0  0  0  0  0  0  0
   -1.1833   -4.1246   33.6087 H   0  0  0  0  0  0  0  0  0  0  0  0
    1.6563   -3.0937   33.0396 H   0  0  0  0  0  0  0  0  0  0  0  0
    0.6860   -2.7001   34.4082 H   0  0  0  0  0  0  0  0  0  0  0  0
    2.7784   -3.7102   38.1936 H   0  0  0  0  0  0  0  0  0  0  0  0
    1.7582   -4.9725   38.8534 H   0  0  0  0  0  0  0  0  0  0  0  0
    1.4438   -3.0708   40.2564 H   0  0  0  0  0  0  0  0  0  0  0  0
    1.4178   -1.9469   38.9106 H   0  0  0  0  0  0  0  0  0  0  0  0
   -0.7562   -2.2210   39.8171 H   0  0  0  0  0  0  0  0  0  0  0  0
   -1.3549   -1.8797   37.7329 H   0  0  0  0  0  0  0  0  0  0  0  0
   -1.7479   -3.5784   37.7936 H   0  0  0  0  0  0  0  0  0  0  0  0
   -0.5123   -3.3253   35.8512 H   0  0  0  0  0  0  0  0  0  0  0  0
    0.6574   -2.1849   36.5525 H   0  0  0  0  0  0  0  0  0  0  0  0
    3.0304   -4.9593   32.9199 H   0  0  0  0  0  0  0  0  0  0  0  0
    2.5075   -6.4979   33.6477 H   0  0  0  0  0  0  0  0  0  0  0  0
   -1.4324   -5.6143   38.7204 H   0  0  0  0  0  0  0  0  0  0  0  0
   -0.4497   -6.0233   40.9225 H   0  0  0  0  0  0  0  0  0  0  0  0
    0.9492   -7.4065   42.0979 H   0  0  0  0  0  0  0  0  0  0  0  0
    2.1863   -8.9456   39.1961 H   0  0  0  0  0  0  0  0  0  0  0  0
    1.1965   -8.5356   36.9880 H   0  0  0  0  0  0  0  0  0  0  0  0
  1  2  2  0
  2  3  2  0
  2  4  1  0
  4  5  1  0
  5  6  1  0
  6  7  1  0
  7  8  1  0
  8  9  2  0
  9 10  1  0
 10 11  2  0
 11 12  1  0
 12 13  1  0
 13 14  1  0
 14 15  1  0
 15 16  2  0
 15 17  2  0
 15 18  1  0
 18 19  1  0
 19 20  1  0
 20 21  1  0
 21 22  1  0
 22 23  1  0
 14 24  1  0
  2 25  1  0
 25 26  2  0
 26 27  1  0
 27 28  2  0
 28 29  1  0
 28 30  1  0
 30 31  2  0
 11  7  1  0
 23 18  1  0
 31 25  1  0
 24 10  1  0
  4 32  1  0
  5 33  1  0
  5 34  1  0
  6 35  1  0
  6 36  1  0
 12 37  1  0
 12 38  1  0
 13 39  1  0
 13 40  1  0
 19 41  1  0
 19 42  1  0
 20 43  1  0
 20 44  1  0
 21 45  1  0
 22 46  1  0
 22 47  1  0
 23 48  1  0
 23 49  1  0
 24 50  1  0
 24 51  1  0
 26 52  1  0
 27 53  1  0
 29 54  1  0
 30 55  1  0
 31 56  1  0
M  END
>  <Energy>  (280) 
-63.196041201504322

>  <compound_id>  (280) 
2519

>  <target_id>  (280) 
1

>  <reference_id>  (280) 
164

>  <inspiration_ids>  (280) 
[168, 164]

>  <energy_score>  (280) 
-23.25455007920965

>  <distance_score>  (280) 
2.152090853413564

>  <path>  (280) 
/opt/xchem-fragalysis-2/maxwin/BulkDock/SCRATCH/505736/C2519-P164/C2519-P164.minimised.mol

>  <scratch_subdir>  (280) 
/opt/xchem-fragalysis-2/maxwin/BulkDock/SCRATCH/505736/C2519-P164

>  <fragmenstein_runtime>  (280) 
45.22729253768921

>  <fragmenstein_outcome>  (280) 
too moved

>  <fragmenstein_mode>  (280) 
expansion

>  <fragmenstein_error>  (280) 


$$$$
C2519-P168
     RDKit          3D

 56 59  0  0  0  0  0  0  0  0999 V2000
    4.5426   -3.9164   30.4899 O   0  0  0  0  0  0  0  0  0  0  0  0
    3.6205   -3.1726   31.3189 S   0  0  0  0  0  0  0  0  0  0  0  0
    3.5582   -1.7299   31.3031 O   0  0  0  0  0  0  0  0  0  0  0  0
    2.0509   -3.6989   30.9075 N   0  0  0  0  0  0  0  0  0  0  0  0
    1.9012   -5.0535   30.3189 C   0  0  0  0  0  0  0  0  0  0  0  0
    0.4325   -5.4859   30.1495 C   0  0  0  0  0  0  0  0  0  0  0  0
   -0.0895   -6.3347   31.2081 N   0  0  0  0  0  0  0  0  0  0  0  0
   -0.8740   -7.4070   30.9344 N   0  0  0  0  0  0  0  0  0  0  0  0
   -1.2826   -7.9278   32.0965 N   0  0  0  0  0  0  0  0  0  0  0  0
   -0.7575   -7.1699   33.1028 C   0  0  0  0  0  0  0  0  0  0  0  0
   -0.0244   -6.1562   32.5477 C   0  0  0  0  0  0  0  0  0  0  0  0
    0.6236   -5.1040   33.3273 C   0  0  0  0  0  0  0  0  0  0  0  0
   -0.1856   -4.8901   34.5981 C   0  0  0  0  0  0  0  0  0  0  0  0
   -0.4661   -6.1499   35.3389 N   0  0  0  0  0  0  0  0  0  0  0  0
    0.4417   -6.4389   36.7092 S   0  0  0  0  0  0  0  0  0  0  0  0
    1.8341   -6.5012   36.3282 O   0  0  0  0  0  0  0  0  0  0  0  0
   -0.1697   -7.5077   37.4490 O   0  0  0  0  0  0  0  0  0  0  0  0
    0.1610   -4.9981   37.5260 N   0  0  0  0  0  0  0  0  0  0  0  0
    1.0822   -4.6902   38.6607 C   0  0  0  0  0  0  0  0  0  0  0  0
    0.5433   -3.5178   39.5199 C   0  0  0  0  0  0  0  0  0  0  0  0
   -0.2763   -2.5594   38.7525 N   0  0  0  0  0  0  0  0  0  0  0  0
   -1.4600   -3.2570   38.2097 C   0  0  0  0  0  0  0  0  0  0  0  0
   -1.2534   -4.7565   37.9191 C   0  0  0  0  0  0  0  0  0  0  0  0
   -0.9491   -7.3473   34.5719 C   0  0  0  0  0  0  0  0  0  0  0  0
    3.8200   -3.6813   33.0158 C   0  0  0  0  0  0  0  0  0  0  0  0
    4.7304   -4.6964   33.3337 C   0  0  0  0  0  0  0  0  0  0  0  0
    4.8115   -5.1738   34.6389 C   0  0  0  0  0  0  0  0  0  0  0  0
    4.0119   -4.5993   35.6140 C   0  0  0  0  0  0  0  0  0  0  0  0
    4.0398   -5.1210   36.8697 O   0  0  0  0  0  0  0  0  0  0  0  0
    3.1633   -3.5338   35.3316 C   0  0  0  0  0  0  0  0  0  0  0  0
    3.0706   -3.0608   34.0220 C   0  0  0  0  0  0  0  0  0  0  0  0
    1.5561   -2.9269   30.4511 H   0  0  0  0  0  0  0  0  0  0  0  0
    2.4291   -5.7709   30.9445 H   0  0  0  0  0  0  0  0  0  0  0  0
    2.3639   -5.0299   29.3256 H   0  0  0  0  0  0  0  0  0  0  0  0
    0.3461   -6.0713   29.2258 H   0  0  0  0  0  0  0  0  0  0  0  0
   -0.2395   -4.6244   30.0706 H   0  0  0  0  0  0  0  0  0  0  0  0
    1.6379   -5.4281   33.5684 H   0  0  0  0  0  0  0  0  0  0  0  0
    0.6422   -4.1549   32.7942 H   0  0  0  0  0  0  0  0  0  0  0  0
    0.3258   -4.1547   35.2241 H   0  0  0  0  0  0  0  0  0  0  0  0
   -1.1407   -4.4241   34.3478 H   0  0  0  0  0  0  0  0  0  0  0  0
    2.0444   -4.3893   38.2413 H   0  0  0  0  0  0  0  0  0  0  0  0
    1.2291   -5.5722   39.2930 H   0  0  0  0  0  0  0  0  0  0  0  0
   -0.0528   -3.9116   40.3531 H   0  0  0  0  0  0  0  0  0  0  0  0
    1.3872   -2.9887   39.9766 H   0  0  0  0  0  0  0  0  0  0  0  0
    0.2899   -2.2626   37.9562 H   0  0  0  0  0  0  0  0  0  0  0  0
   -1.7504   -2.7462   37.2836 H   0  0  0  0  0  0  0  0  0  0  0  0
   -2.3019   -3.1383   38.9015 H   0  0  0  0  0  0  0  0  0  0  0  0
   -1.4890   -5.3523   38.8087 H   0  0  0  0  0  0  0  0  0  0  0  0
   -1.9330   -5.0424   37.1146 H   0  0  0  0  0  0  0  0  0  0  0  0
   -0.3966   -8.2308   34.8928 H   0  0  0  0  0  0  0  0  0  0  0  0
   -2.0077   -7.5000   34.8005 H   0  0  0  0  0  0  0  0  0  0  0  0
    5.3754   -5.1239   32.5706 H   0  0  0  0  0  0  0  0  0  0  0  0
    5.4949   -5.9789   34.8935 H   0  0  0  0  0  0  0  0  0  0  0  0
    3.3784   -5.8502   36.8280 H   0  0  0  0  0  0  0  0  0  0  0  0
    2.5746   -3.0813   36.1238 H   0  0  0  0  0  0  0  0  0  0  0  0
    2.4055   -2.2329   33.7878 H   0  0  0  0  0  0  0  0  0  0  0  0
  1  2  2  0
  2  3  2  0
  2  4  1  0
  4  5  1  0
  5  6  1  0
  6  7  1  0
  7  8  1  0
  8  9  2  0
  9 10  1  0
 10 11  2  0
 11 12  1  0
 12 13  1  0
 13 14  1  0
 14 15  1  0
 15 16  2  0
 15 17  2  0
 15 18  1  0
 18 19  1  0
 19 20  1  0
 20 21  1  0
 21 22  1  0
 22 23  1  0
 14 24  1  0
  2 25  1  0
 25 26  2  0
 26 27  1  0
 27 28  2  0
 28 29  1  0
 28 30  1  0
 30 31  2  0
 11  7  1  0
 23 18  1  0
 31 25  1  0
 24 10  1  0
  4 32  1  0
  5 33  1  0
  5 34  1  0
  6 35  1  0
  6 36  1  0
 12 37  1  0
 12 38  1  0
 13 39  1  0
 13 40  1  0
 19 41  1  0
 19 42  1  0
 20 43  1  0
 20 44  1  0
 21 45  1  0
 22 46  1  0
 22 47  1  0
 23 48  1  0
 23 49  1  0
 24 50  1  0
 24 51  1  0
 26 52  1  0
 27 53  1  0
 29 54  1  0
 30 55  1  0
 31 56  1  0
M  END
>  <Energy>  (281) 
-123.40222066817253

>  <compound_id>  (281) 
2519

>  <target_id>  (281) 
1

>  <reference_id>  (281) 
168

>  <inspiration_ids>  (281) 
[168, 165]

>  <energy_score>  (281) 
-82.0921801830215

>  <distance_score>  (281) 
0.9934995175342504

>  <path>  (281) 
/opt/xchem-fragalysis-2/maxwin/BulkDock/SCRATCH/505736/C2519-P168/C2519-P168.minimised.mol

>  <scratch_subdir>  (281) 
/opt/xchem-fragalysis-2/maxwin/BulkDock/SCRATCH/505736/C2519-P168

>  <fragmenstein_runtime>  (281) 
21.340984582901

>  <fragmenstein_outcome>  (281) 
acceptable

>  <fragmenstein_mode>  (281) 
expansion

>  <fragmenstein_error>  (281) 


$$$$
C2519-P165
     RDKit          3D

 56 59  0  0  0  0  0  0  0  0999 V2000
    4.6379   -4.0765   30.6317 O   0  0  0  0  0  0  0  0  0  0  0  0
    3.7796   -3.2662   31.4673 S   0  0  0  0  0  0  0  0  0  0  0  0
    3.8246   -1.8227   31.4514 O   0  0  0  0  0  0  0  0  0  0  0  0
    2.1780   -3.6829   31.0900 N   0  0  0  0  0  0  0  0  0  0  0  0
    1.9218   -5.0247   30.5123 C   0  0  0  0  0  0  0  0  0  0  0  0
    0.4202   -5.3463   30.4544 C   0  0  0  0  0  0  0  0  0  0  0  0
   -0.0324   -6.3081   31.4395 N   0  0  0  0  0  0  0  0  0  0  0  0
   -0.7876   -7.3842   31.1166 N   0  0  0  0  0  0  0  0  0  0  0  0
   -1.1880   -7.9588   32.2582 N   0  0  0  0  0  0  0  0  0  0  0  0
   -0.6756   -7.2334   33.2985 C   0  0  0  0  0  0  0  0  0  0  0  0
    0.0498   -6.1949   32.7806 C   0  0  0  0  0  0  0  0  0  0  0  0
    0.6483   -5.1329   33.5815 C   0  0  0  0  0  0  0  0  0  0  0  0
   -0.2577   -4.9319   34.7845 C   0  0  0  0  0  0  0  0  0  0  0  0
   -0.5016   -6.1936   35.5462 N   0  0  0  0  0  0  0  0  0  0  0  0
    0.4619   -6.4355   36.8915 S   0  0  0  0  0  0  0  0  0  0  0  0
    1.8418   -6.5022   36.4668 O   0  0  0  0  0  0  0  0  0  0  0  0
   -0.1005   -7.4610   37.7236 O   0  0  0  0  0  0  0  0  0  0  0  0
    0.2136   -4.9591   37.6641 N   0  0  0  0  0  0  0  0  0  0  0  0
    1.1536   -4.6280   38.7733 C   0  0  0  0  0  0  0  0  0  0  0  0
    0.6413   -3.4201   39.5988 C   0  0  0  0  0  0  0  0  0  0  0  0
   -0.1895   -2.4846   38.8152 N   0  0  0  0  0  0  0  0  0  0  0  0
   -1.3927   -3.1956   38.3331 C   0  0  0  0  0  0  0  0  0  0  0  0
   -1.1938   -4.7019   38.0774 C   0  0  0  0  0  0  0  0  0  0  0  0
   -0.9014   -7.4297   34.7659 C   0  0  0  0  0  0  0  0  0  0  0  0
    3.9470   -3.7890   33.1587 C   0  0  0  0  0  0  0  0  0  0  0  0
    4.8007   -4.8529   33.4716 C   0  0  0  0  0  0  0  0  0  0  0  0
    4.8599   -5.3299   34.7767 C   0  0  0  0  0  0  0  0  0  0  0  0
    4.0883   -4.7157   35.7511 C   0  0  0  0  0  0  0  0  0  0  0  0
    4.0925   -5.2400   37.0068 O   0  0  0  0  0  0  0  0  0  0  0  0
    3.2821   -3.6171   35.4679 C   0  0  0  0  0  0  0  0  0  0  0  0
    3.2165   -3.1389   34.1602 C   0  0  0  0  0  0  0  0  0  0  0  0
    1.7158   -2.8839   30.6467 H   0  0  0  0  0  0  0  0  0  0  0  0
    2.4604   -5.7815   31.0870 H   0  0  0  0  0  0  0  0  0  0  0  0
    2.3110   -5.0160   29.4876 H   0  0  0  0  0  0  0  0  0  0  0  0
    0.1919   -5.7821   29.4890 H   0  0  0  0  0  0  0  0  0  0  0  0
   -0.2016   -4.4512   30.5691 H   0  0  0  0  0  0  0  0  0  0  0  0
    1.6459   -5.4487   33.8908 H   0  0  0  0  0  0  0  0  0  0  0  0
    0.7061   -4.1870   33.0434 H   0  0  0  0  0  0  0  0  0  0  0  0
    0.1647   -4.1430   35.4121 H   0  0  0  0  0  0  0  0  0  0  0  0
   -1.2271   -4.5452   34.4610 H   0  0  0  0  0  0  0  0  0  0  0  0
    2.1145   -4.3552   38.3326 H   0  0  0  0  0  0  0  0  0  0  0  0
    1.2974   -5.4896   39.4338 H   0  0  0  0  0  0  0  0  0  0  0  0
    0.0625   -3.7778   40.4601 H   0  0  0  0  0  0  0  0  0  0  0  0
    1.4989   -2.8801   40.0158 H   0  0  0  0  0  0  0  0  0  0  0  0
    0.3559   -2.2324   37.9894 H   0  0  0  0  0  0  0  0  0  0  0  0
   -1.7147   -2.7099   37.4039 H   0  0  0  0  0  0  0  0  0  0  0  0
   -2.2103   -3.0571   39.0498 H   0  0  0  0  0  0  0  0  0  0  0  0
   -1.4165   -5.2757   38.9846 H   0  0  0  0  0  0  0  0  0  0  0  0
   -1.8840   -5.0008   37.2890 H   0  0  0  0  0  0  0  0  0  0  0  0
   -0.3150   -8.2853   35.1069 H   0  0  0  0  0  0  0  0  0  0  0  0
   -1.9591   -7.6283   34.9623 H   0  0  0  0  0  0  0  0  0  0  0  0
    5.4152   -5.3180   32.7057 H   0  0  0  0  0  0  0  0  0  0  0  0
    5.4999   -6.1693   35.0321 H   0  0  0  0  0  0  0  0  0  0  0  0
    3.3811   -5.9216   36.9636 H   0  0  0  0  0  0  0  0  0  0  0  0
    2.7063   -3.1434   36.2566 H   0  0  0  0  0  0  0  0  0  0  0  0
    2.5868   -2.2850   33.9226 H   0  0  0  0  0  0  0  0  0  0  0  0
  1  2  2  0
  2  3  2  0
  2  4  1  0
  4  5  1  0
  5  6  1  0
  6  7  1  0
  7  8  1  0
  8  9  2  0
  9 10  1  0
 10 11  2  0
 11 12  1  0
 12 13  1  0
 13 14  1  0
 14 15  1  0
 15 16  2  0
 15 17  2  0
 15 18  1  0
 18 19  1  0
 19 20  1  0
 20 21  1  0
 21 22  1  0
 22 23  1  0
 14 24  1  0
  2 25  1  0
 25 26  2  0
 26 27  1  0
 27 28  2  0
 28 29  1  0
 28 30  1  0
 30 31  2  0
 11  7  1  0
 23 18  1  0
 31 25  1  0
 24 10  1  0
  4 32  1  0
  5 33  1  0
  5 34  1  0
  6 35  1  0
  6 36  1  0
 12 37  1  0
 12 38  1  0
 13 39  1  0
 13 40  1  0
 19 41  1  0
 19 42  1  0
 20 43  1  0
 20 44  1  0
 21 45  1  0
 22 46  1  0
 22 47  1  0
 23 48  1  0
 23 49  1  0
 24 50  1  0
 24 51  1  0
 26 52  1  0
 27 53  1  0
 29 54  1  0
 30 55  1  0
 31 56  1  0
M  END
>  <Energy>  (282) 
-123.1044394314065

>  <compound_id>  (282) 
2519

>  <target_id>  (282) 
1

>  <reference_id>  (282) 
165

>  <inspiration_ids>  (282) 
[168, 165]

>  <energy_score>  (282) 
-81.7943989462533

>  <distance_score>  (282) 
1.026092534949256

>  <path>  (282) 
/opt/xchem-fragalysis-2/maxwin/BulkDock/SCRATCH/505736/C2519-P165/C2519-P165.minimised.mol

>  <scratch_subdir>  (282) 
/opt/xchem-fragalysis-2/maxwin/BulkDock/SCRATCH/505736/C2519-P165

>  <fragmenstein_runtime>  (282) 
20.674930810928345

>  <fragmenstein_outcome>  (282) 
too moved

>  <fragmenstein_mode>  (282) 
expansion

>  <fragmenstein_error>  (282) 


$$$$
C2520-P168
     RDKit          3D

 57 60  0  0  0  0  0  0  0  0999 V2000
    3.8070   -8.2545   35.4968 O   0  0  0  0  0  0  0  0  0  0  0  0
    2.6834   -7.5750   36.0996 S   0  0  0  0  0  0  0  0  0  0  0  0
    2.6858   -6.1544   36.2384 O   0  0  0  0  0  0  0  0  0  0  0  0
    1.4560   -7.9905   35.0693 N   0  0  0  0  0  0  0  0  0  0  0  0
    0.0815   -7.5025   35.1786 C   0  0  0  0  0  0  0  0  0  0  0  0
   -0.6785   -7.6773   33.8472 C   0  0  0  0  0  0  0  0  0  0  0  0
   -0.2128   -6.9976   32.6228 N   0  0  0  0  0  0  0  0  0  0  0  0
   -1.2514   -6.6668   31.8071 N   0  0  0  0  0  0  0  0  0  0  0  0
   -1.5684   -5.4373   32.2188 N   0  0  0  0  0  0  0  0  0  0  0  0
   -0.4840   -4.9680   32.8757 C   0  0  0  0  0  0  0  0  0  0  0  0
    0.5557   -5.8408   32.6257 C   0  0  0  0  0  0  0  0  0  0  0  0
    1.9644   -5.5440   32.9361 C   0  0  0  0  0  0  0  0  0  0  0  0
    2.0245   -4.3782   33.9493 C   0  0  0  0  0  0  0  0  0  0  0  0
    0.7686   -4.3604   34.7886 N   0  0  0  0  0  0  0  0  0  0  0  0
    0.9189   -3.6240   36.2762 S   0  0  0  0  0  0  0  0  0  0  0  0
    2.3190   -3.5064   36.5989 O   0  0  0  0  0  0  0  0  0  0  0  0
    0.0531   -2.4768   36.2525 O   0  0  0  0  0  0  0  0  0  0  0  0
    0.2316   -4.6613   37.4145 N   0  0  0  0  0  0  0  0  0  0  0  0
    0.7906   -4.4069   38.7954 C   0  0  0  0  0  0  0  0  0  0  0  0
    0.4010   -3.0123   39.3287 C   0  0  0  0  0  0  0  0  0  0  0  0
   -0.9174   -2.5263   38.8728 N   0  0  0  0  0  0  0  0  0  0  0  0
   -1.7961   -3.6669   38.5763 C   0  0  0  0  0  0  0  0  0  0  0  0
   -1.2602   -4.6448   37.4975 C   0  0  0  0  0  0  0  0  0  0  0  0
   -0.3937   -3.9201   33.9231 C   0  0  0  0  0  0  0  0  0  0  0  0
    2.3129   -8.2780   37.5400 N   0  0  0  0  0  0  0  0  0  0  0  0
    3.4325   -8.5209   38.4782 C   0  0  0  0  0  0  0  0  0  0  0  0
    2.7504   -8.7692   39.8142 C   0  0  0  0  0  0  0  0  0  0  0  0
    1.5980   -7.7915   39.7662 C   0  0  0  0  0  0  0  0  0  0  0  0
    1.1354   -7.8709   38.3202 C   0  0  0  0  0  0  0  0  0  0  0  0
    1.8200   -7.7925   34.1527 H   0  0  0  0  0  0  0  0  0  0  0  0
   -0.4395   -8.0826   35.9458 H   0  0  0  0  0  0  0  0  0  0  0  0
    0.0526   -6.4702   35.4960 H   0  0  0  0  0  0  0  0  0  0  0  0
   -1.7111   -7.3506   34.0321 H   0  0  0  0  0  0  0  0  0  0  0  0
   -0.7564   -8.7024   33.5257 H   0  0  0  0  0  0  0  0  0  0  0  0
    2.5359   -6.3899   33.2968 H   0  0  0  0  0  0  0  0  0  0  0  0
    2.4741   -5.2282   32.0177 H   0  0  0  0  0  0  0  0  0  0  0  0
    2.9436   -4.4758   34.5297 H   0  0  0  0  0  0  0  0  0  0  0  0
    2.1031   -3.4231   33.4123 H   0  0  0  0  0  0  0  0  0  0  0  0
    0.3665   -5.1634   39.4675 H   0  0  0  0  0  0  0  0  0  0  0  0
    1.8748   -4.5564   38.8153 H   0  0  0  0  0  0  0  0  0  0  0  0
    1.1576   -2.2761   39.0329 H   0  0  0  0  0  0  0  0  0  0  0  0
    0.4140   -3.0359   40.4245 H   0  0  0  0  0  0  0  0  0  0  0  0
   -0.7559   -2.0412   37.9778 H   0  0  0  0  0  0  0  0  0  0  0  0
   -2.7723   -3.2826   38.2651 H   0  0  0  0  0  0  0  0  0  0  0  0
   -1.9762   -4.2187   39.5077 H   0  0  0  0  0  0  0  0  0  0  0  0
   -1.7012   -4.4123   36.5281 H   0  0  0  0  0  0  0  0  0  0  0  0
   -1.5717   -5.6641   37.7399 H   0  0  0  0  0  0  0  0  0  0  0  0
   -0.1964   -2.9405   33.4762 H   0  0  0  0  0  0  0  0  0  0  0  0
   -1.3046   -3.8713   34.5076 H   0  0  0  0  0  0  0  0  0  0  0  0
    4.0288   -9.3843   38.1715 H   0  0  0  0  0  0  0  0  0  0  0  0
    4.0759   -7.6356   38.5401 H   0  0  0  0  0  0  0  0  0  0  0  0
    3.4188   -8.5969   40.6623 H   0  0  0  0  0  0  0  0  0  0  0  0
    2.3779   -9.7973   39.8750 H   0  0  0  0  0  0  0  0  0  0  0  0
    1.9672   -6.7867   39.9976 H   0  0  0  0  0  0  0  0  0  0  0  0
    0.8012   -8.0333   40.4751 H   0  0  0  0  0  0  0  0  0  0  0  0
    0.3550   -8.6222   38.2176 H   0  0  0  0  0  0  0  0  0  0  0  0
    0.7151   -6.9346   37.9823 H   0  0  0  0  0  0  0  0  0  0  0  0
  1  2  2  0
  2  3  2  0
  2  4  1  0
  4  5  1  0
  5  6  1  0
  6  7  1  0
  7  8  1  0
  8  9  2  0
  9 10  1  0
 10 11  2  0
 11 12  1  0
 12 13  1  0
 13 14  1  0
 14 15  1  0
 15 16  2  0
 15 17  2  0
 15 18  1  0
 18 19  1  0
 19 20  1  0
 20 21  1  0
 21 22  1  0
 22 23  1  0
 14 24  1  0
  2 25  1  0
 25 26  1  0
 26 27  1  0
 27 28  1  0
 28 29  1  0
 11  7  1  0
 23 18  1  0
 29 25  1  0
 24 10  1  0
  4 30  1  0
  5 31  1  0
  5 32  1  0
  6 33  1  0
  6 34  1  0
 12 35  1  0
 12 36  1  0
 13 37  1  0
 13 38  1  0
 19 39  1  0
 19 40  1  0
 20 41  1  0
 20 42  1  0
 21 43  1  0
 22 44  1  0
 22 45  1  0
 23 46  1  0
 23 47  1  0
 24 48  1  0
 24 49  1  0
 26 50  1  0
 26 51  1  0
 27 52  1  0
 27 53  1  0
 28 54  1  0
 28 55  1  0
 29 56  1  0
 29 57  1  0
M  END
>  <Energy>  (283) 
-187.25468203916517

>  <compound_id>  (283) 
2520

>  <target_id>  (283) 
1

>  <reference_id>  (283) 
168

>  <inspiration_ids>  (283) 
[168, 166]

>  <energy_score>  (283) 
-44.15180900901237

>  <distance_score>  (283) 
1.9506161291947626

>  <path>  (283) 
/opt/xchem-fragalysis-2/maxwin/BulkDock/SCRATCH/505736/C2520-P168/C2520-P168.minimised.mol

>  <scratch_subdir>  (283) 
/opt/xchem-fragalysis-2/maxwin/BulkDock/SCRATCH/505736/C2520-P168

>  <fragmenstein_runtime>  (283) 
7.968758821487427

>  <fragmenstein_outcome>  (283) 
too moved

>  <fragmenstein_mode>  (283) 
expansion

>  <fragmenstein_error>  (283) 


$$$$
C2520-P166
     RDKit          3D

 57 60  0  0  0  0  0  0  0  0999 V2000
    2.3087   -8.8339   35.1502 O   0  0  0  0  0  0  0  0  0  0  0  0
    1.5961   -8.0320   36.1195 S   0  0  0  0  0  0  0  0  0  0  0  0
    1.9025   -6.6378   36.1781 O   0  0  0  0  0  0  0  0  0  0  0  0
   -0.0603   -8.2653   35.9490 N   0  0  0  0  0  0  0  0  0  0  0  0
   -0.8209   -7.5656   34.8799 C   0  0  0  0  0  0  0  0  0  0  0  0
   -0.3900   -7.9510   33.4618 C   0  0  0  0  0  0  0  0  0  0  0  0
   -0.3562   -6.9082   32.4579 N   0  0  0  0  0  0  0  0  0  0  0  0
   -1.5276   -6.5193   31.9585 N   0  0  0  0  0  0  0  0  0  0  0  0
   -1.7119   -5.3014   32.4545 N   0  0  0  0  0  0  0  0  0  0  0  0
   -0.5339   -4.9001   32.9762 C   0  0  0  0  0  0  0  0  0  0  0  0
    0.4427   -5.7983   32.5938 C   0  0  0  0  0  0  0  0  0  0  0  0
    1.8550   -5.7265   33.0105 C   0  0  0  0  0  0  0  0  0  0  0  0
    2.0227   -4.5996   34.0415 C   0  0  0  0  0  0  0  0  0  0  0  0
    0.7910   -4.5087   34.9111 N   0  0  0  0  0  0  0  0  0  0  0  0
    1.0773   -3.8501   36.4156 S   0  0  0  0  0  0  0  0  0  0  0  0
    2.4890   -3.9515   36.7106 O   0  0  0  0  0  0  0  0  0  0  0  0
    0.4094   -2.5770   36.4226 O   0  0  0  0  0  0  0  0  0  0  0  0
    0.2810   -4.7709   37.5695 N   0  0  0  0  0  0  0  0  0  0  0  0
    0.8156   -4.5228   38.9519 C   0  0  0  0  0  0  0  0  0  0  0  0
    0.4720   -3.1041   39.4557 C   0  0  0  0  0  0  0  0  0  0  0  0
   -0.7914   -2.5465   38.9298 N   0  0  0  0  0  0  0  0  0  0  0  0
   -1.7241   -3.6422   38.6240 C   0  0  0  0  0  0  0  0  0  0  0  0
   -1.1974   -4.6851   37.6046 C   0  0  0  0  0  0  0  0  0  0  0  0
   -0.3525   -3.9442   34.1046 C   0  0  0  0  0  0  0  0  0  0  0  0
    1.8213   -8.6559   37.6370 N   0  0  0  0  0  0  0  0  0  0  0  0
    3.2041   -8.7285   38.1445 C   0  0  0  0  0  0  0  0  0  0  0  0
    3.0221   -8.8627   39.6487 C   0  0  0  0  0  0  0  0  0  0  0  0
    1.8675   -7.9203   39.9118 C   0  0  0  0  0  0  0  0  0  0  0  0
    0.9492   -8.1614   38.7256 C   0  0  0  0  0  0  0  0  0  0  0  0
   -0.3517   -9.2498   36.0708 H   0  0  0  0  0  0  0  0  0  0  0  0
   -1.8766   -7.8350   35.0026 H   0  0  0  0  0  0  0  0  0  0  0  0
   -0.7724   -6.5004   35.0879 H   0  0  0  0  0  0  0  0  0  0  0  0
   -1.0001   -8.7630   33.0606 H   0  0  0  0  0  0  0  0  0  0  0  0
    0.6380   -8.2322   33.5032 H   0  0  0  0  0  0  0  0  0  0  0  0
    2.1861   -6.6622   33.4571 H   0  0  0  0  0  0  0  0  0  0  0  0
    2.4953   -5.5297   32.1455 H   0  0  0  0  0  0  0  0  0  0  0  0
    2.9363   -4.8081   34.6044 H   0  0  0  0  0  0  0  0  0  0  0  0
    2.1731   -3.6379   33.5334 H   0  0  0  0  0  0  0  0  0  0  0  0
    0.3544   -5.2559   39.6261 H   0  0  0  0  0  0  0  0  0  0  0  0
    1.8933   -4.7072   38.9994 H   0  0  0  0  0  0  0  0  0  0  0  0
    1.2831   -2.4141   39.1944 H   0  0  0  0  0  0  0  0  0  0  0  0
    0.4288   -3.1179   40.5510 H   0  0  0  0  0  0  0  0  0  0  0  0
   -0.5541   -2.1079   38.0270 H   0  0  0  0  0  0  0  0  0  0  0  0
   -2.6618   -3.2143   38.2545 H   0  0  0  0  0  0  0  0  0  0  0  0
   -1.9773   -4.1491   39.5636 H   0  0  0  0  0  0  0  0  0  0  0  0
   -1.6049   -4.4821   36.6162 H   0  0  0  0  0  0  0  0  0  0  0  0
   -1.5463   -5.6798   37.8857 H   0  0  0  0  0  0  0  0  0  0  0  0
   -0.1050   -2.9481   33.7238 H   0  0  0  0  0  0  0  0  0  0  0  0
   -1.2675   -3.8899   34.6915 H   0  0  0  0  0  0  0  0  0  0  0  0
    3.7380   -9.5870   37.7306 H   0  0  0  0  0  0  0  0  0  0  0  0
    3.7544   -7.8104   37.9097 H   0  0  0  0  0  0  0  0  0  0  0  0
    3.9245   -8.5954   40.2051 H   0  0  0  0  0  0  0  0  0  0  0  0
    2.7430   -9.8900   39.9121 H   0  0  0  0  0  0  0  0  0  0  0  0
    2.2314   -6.8878   39.9130 H   0  0  0  0  0  0  0  0  0  0  0  0
    1.3734   -8.1071   40.8692 H   0  0  0  0  0  0  0  0  0  0  0  0
    0.2196   -8.9354   38.9728 H   0  0  0  0  0  0  0  0  0  0  0  0
    0.3947   -7.2629   38.4635 H   0  0  0  0  0  0  0  0  0  0  0  0
  1  2  2  0
  2  3  2  0
  2  4  1  0
  4  5  1  0
  5  6  1  0
  6  7  1  0
  7  8  1  0
  8  9  2  0
  9 10  1  0
 10 11  2  0
 11 12  1  0
 12 13  1  0
 13 14  1  0
 14 15  1  0
 15 16  2  0
 15 17  2  0
 15 18  1  0
 18 19  1  0
 19 20  1  0
 20 21  1  0
 21 22  1  0
 22 23  1  0
 14 24  1  0
  2 25  1  0
 25 26  1  0
 26 27  1  0
 27 28  1  0
 28 29  1  0
 11  7  1  0
 23 18  1  0
 29 25  1  0
 24 10  1  0
  4 30  1  0
  5 31  1  0
  5 32  1  0
  6 33  1  0
  6 34  1  0
 12 35  1  0
 12 36  1  0
 13 37  1  0
 13 38  1  0
 19 39  1  0
 19 40  1  0
 20 41  1  0
 20 42  1  0
 21 43  1  0
 22 44  1  0
 22 45  1  0
 23 46  1  0
 23 47  1  0
 24 48  1  0
 24 49  1  0
 26 50  1  0
 26 51  1  0
 27 52  1  0
 27 53  1  0
 28 54  1  0
 28 55  1  0
 29 56  1  0
 29 57  1  0
M  END
>  <Energy>  (284) 
-210.37901363129055

>  <compound_id>  (284) 
2520

>  <target_id>  (284) 
1

>  <reference_id>  (284) 
166

>  <inspiration_ids>  (284) 
[168, 166]

>  <energy_score>  (284) 
-67.27614060113373

>  <distance_score>  (284) 
1.8995793303611404

>  <path>  (284) 
/opt/xchem-fragalysis-2/maxwin/BulkDock/SCRATCH/505736/C2520-P166/C2520-P166.minimised.mol

>  <scratch_subdir>  (284) 
/opt/xchem-fragalysis-2/maxwin/BulkDock/SCRATCH/505736/C2520-P166

>  <fragmenstein_runtime>  (284) 
7.87418270111084

>  <fragmenstein_outcome>  (284) 
too moved

>  <fragmenstein_mode>  (284) 
expansion

>  <fragmenstein_error>  (284) 


$$$$
C2521-P168
     RDKit          3D

 55 58  0  0  0  0  0  0  0  0999 V2000
    0.8477   -8.5011   39.8003 C   0  0  0  0  0  0  0  0  0  0  0  0
    1.9399   -8.4153   38.8600 N   0  0  0  0  0  0  0  0  0  0  0  0
    3.2554   -8.6296   39.1521 C   0  0  0  0  0  0  0  0  0  0  0  0
    3.9502   -8.3601   37.9966 C   0  0  0  0  0  0  0  0  0  0  0  0
    2.9659   -7.9848   37.0471 C   0  0  0  0  0  0  0  0  0  0  0  0
    3.3458   -7.5561   35.3870 S   0  0  0  0  0  0  0  0  0  0  0  0
    4.2129   -6.4154   35.5236 O   0  0  0  0  0  0  0  0  0  0  0  0
    3.8087   -8.7902   34.7911 O   0  0  0  0  0  0  0  0  0  0  0  0
    2.0439   -7.0425   34.3933 N   0  0  0  0  0  0  0  0  0  0  0  0
    2.3527   -5.8833   33.4641 C   0  0  0  0  0  0  0  0  0  0  0  0
    1.6325   -5.8654   32.0846 C   0  0  0  0  0  0  0  0  0  0  0  0
    0.2311   -6.2200   32.0679 N   0  0  0  0  0  0  0  0  0  0  0  0
   -0.1740   -7.4790   31.7957 N   0  0  0  0  0  0  0  0  0  0  0  0
   -0.9147   -7.8550   32.8360 N   0  0  0  0  0  0  0  0  0  0  0  0
   -1.0706   -6.7517   33.6181 C   0  0  0  0  0  0  0  0  0  0  0  0
   -0.6570   -5.6477   32.9209 C   0  0  0  0  0  0  0  0  0  0  0  0
   -0.6868   -4.2647   33.3725 C   0  0  0  0  0  0  0  0  0  0  0  0
   -0.6120   -4.1985   34.8909 C   0  0  0  0  0  0  0  0  0  0  0  0
   -0.9285   -5.4339   35.6962 N   0  0  0  0  0  0  0  0  0  0  0  0
    0.0206   -5.5827   37.0607 S   0  0  0  0  0  0  0  0  0  0  0  0
    1.3796   -5.5985   36.5751 O   0  0  0  0  0  0  0  0  0  0  0  0
   -0.5613   -6.5866   37.9087 O   0  0  0  0  0  0  0  0  0  0  0  0
   -0.2191   -4.1011   37.7778 N   0  0  0  0  0  0  0  0  0  0  0  0
    0.8626   -3.7022   38.7275 C   0  0  0  0  0  0  0  0  0  0  0  0
    0.4064   -2.5295   39.6210 C   0  0  0  0  0  0  0  0  0  0  0  0
   -0.5669   -1.6440   38.9529 N   0  0  0  0  0  0  0  0  0  0  0  0
   -1.7889   -2.4108   38.6286 C   0  0  0  0  0  0  0  0  0  0  0  0
   -1.5619   -3.9079   38.3678 C   0  0  0  0  0  0  0  0  0  0  0  0
   -1.3165   -6.7475   35.0673 C   0  0  0  0  0  0  0  0  0  0  0  0
    1.7314   -8.0618   37.5715 N   0  0  0  0  0  0  0  0  0  0  0  0
    0.7551   -7.5309   40.2950 H   0  0  0  0  0  0  0  0  0  0  0  0
   -0.0748   -8.7427   39.2748 H   0  0  0  0  0  0  0  0  0  0  0  0
    1.0725   -9.2764   40.5366 H   0  0  0  0  0  0  0  0  0  0  0  0
    3.5769   -8.9448   40.1351 H   0  0  0  0  0  0  0  0  0  0  0  0
    5.0193   -8.4170   37.8468 H   0  0  0  0  0  0  0  0  0  0  0  0
    1.3514   -6.7337   35.0844 H   0  0  0  0  0  0  0  0  0  0  0  0
    3.4255   -5.8249   33.2650 H   0  0  0  0  0  0  0  0  0  0  0  0
    2.1019   -4.9647   34.0045 H   0  0  0  0  0  0  0  0  0  0  0  0
    1.7076   -4.8574   31.6583 H   0  0  0  0  0  0  0  0  0  0  0  0
    2.1163   -6.5055   31.3691 H   0  0  0  0  0  0  0  0  0  0  0  0
   -1.6112   -3.7924   33.0234 H   0  0  0  0  0  0  0  0  0  0  0  0
    0.1158   -3.6594   32.9366 H   0  0  0  0  0  0  0  0  0  0  0  0
   -1.2755   -3.3970   35.2407 H   0  0  0  0  0  0  0  0  0  0  0  0
    0.3984   -3.8464   35.1329 H   0  0  0  0  0  0  0  0  0  0  0  0
    1.7260   -3.3803   38.1336 H   0  0  0  0  0  0  0  0  0  0  0  0
    1.1620   -4.5453   39.3601 H   0  0  0  0  0  0  0  0  0  0  0  0
    1.2814   -1.9438   39.9243 H   0  0  0  0  0  0  0  0  0  0  0  0
   -0.0367   -2.9147   40.5483 H   0  0  0  0  0  0  0  0  0  0  0  0
   -0.1458   -1.3673   38.0638 H   0  0  0  0  0  0  0  0  0  0  0  0
   -2.5176   -2.2930   39.4388 H   0  0  0  0  0  0  0  0  0  0  0  0
   -2.2422   -1.9519   37.7414 H   0  0  0  0  0  0  0  0  0  0  0  0
   -2.3261   -4.2542   37.6759 H   0  0  0  0  0  0  0  0  0  0  0  0
   -1.6455   -4.4743   39.3029 H   0  0  0  0  0  0  0  0  0  0  0  0
   -2.3607   -6.9565   35.2751 H   0  0  0  0  0  0  0  0  0  0  0  0
   -0.7460   -7.5718   35.5114 H   0  0  0  0  0  0  0  0  0  0  0  0
  1  2  1  0
  2  3  1  0
  3  4  2  0
  4  5  1  0
  5  6  1  0
  6  7  2  0
  6  8  2  0
  6  9  1  0
  9 10  1  0
 10 11  1  0
 11 12  1  0
 12 13  1  0
 13 14  2  0
 14 15  1  0
 15 16  2  0
 16 17  1  0
 17 18  1  0
 18 19  1  0
 19 20  1  0
 20 21  2  0
 20 22  2  0
 20 23  1  0
 23 24  1  0
 24 25  1  0
 25 26  1  0
 26 27  1  0
 27 28  1  0
 19 29  1  0
  5 30  2  0
 30  2  1  0
 16 12  1  0
 28 23  1  0
 29 15  1  0
  1 31  1  0
  1 32  1  0
  1 33  1  0
  3 34  1  0
  4 35  1  0
  9 36  1  0
 10 37  1  0
 10 38  1  0
 11 39  1  0
 11 40  1  0
 17 41  1  0
 17 42  1  0
 18 43  1  0
 18 44  1  0
 24 45  1  0
 24 46  1  0
 25 47  1  0
 25 48  1  0
 26 49  1  0
 27 50  1  0
 27 51  1  0
 28 52  1  0
 28 53  1  0
 29 54  1  0
 29 55  1  0
M  END
>  <Energy>  (285) 
-6.7165440206867553

>  <compound_id>  (285) 
2521

>  <target_id>  (285) 
1

>  <reference_id>  (285) 
168

>  <inspiration_ids>  (285) 
[168, 167]

>  <energy_score>  (285) 
-51.15335937908375

>  <distance_score>  (285) 
1.4364965152471678

>  <path>  (285) 
/opt/xchem-fragalysis-2/maxwin/BulkDock/SCRATCH/505736/C2521-P168/C2521-P168.minimised.mol

>  <scratch_subdir>  (285) 
/opt/xchem-fragalysis-2/maxwin/BulkDock/SCRATCH/505736/C2521-P168

>  <fragmenstein_runtime>  (285) 
5.392316579818726

>  <fragmenstein_outcome>  (285) 
too moved

>  <fragmenstein_mode>  (285) 
expansion

>  <fragmenstein_error>  (285) 


$$$$
C2521-P167
     RDKit          3D

 55 58  0  0  0  0  0  0  0  0999 V2000
    2.0730   -7.0085   40.5021 C   0  0  0  0  0  0  0  0  0  0  0  0
    2.5882   -7.7931   39.4083 N   0  0  0  0  0  0  0  0  0  0  0  0
    2.8724   -9.1224   39.4367 C   0  0  0  0  0  0  0  0  0  0  0  0
    3.2918   -9.4355   38.1676 C   0  0  0  0  0  0  0  0  0  0  0  0
    3.1966   -8.2279   37.4263 C   0  0  0  0  0  0  0  0  0  0  0  0
    3.3774   -8.1999   35.6865 S   0  0  0  0  0  0  0  0  0  0  0  0
    2.1467   -8.7942   35.1944 O   0  0  0  0  0  0  0  0  0  0  0  0
    4.6254   -8.8943   35.4476 O   0  0  0  0  0  0  0  0  0  0  0  0
    3.5829   -6.6742   34.8518 N   0  0  0  0  0  0  0  0  0  0  0  0
    2.4405   -6.4801   33.9225 C   0  0  0  0  0  0  0  0  0  0  0  0
    2.3344   -5.4095   32.8481 C   0  0  0  0  0  0  0  0  0  0  0  0
    0.9754   -5.5711   32.2170 N   0  0  0  0  0  0  0  0  0  0  0  0
    0.6214   -6.7744   31.6702 N   0  0  0  0  0  0  0  0  0  0  0  0
   -0.2384   -7.3299   32.5320 N   0  0  0  0  0  0  0  0  0  0  0  0
   -0.5825   -6.3516   33.4231 C   0  0  0  0  0  0  0  0  0  0  0  0
   -0.1289   -5.1465   32.9281 C   0  0  0  0  0  0  0  0  0  0  0  0
   -0.2847   -3.8431   33.5569 C   0  0  0  0  0  0  0  0  0  0  0  0
   -0.4325   -3.9687   35.0696 C   0  0  0  0  0  0  0  0  0  0  0  0
   -0.5824   -5.3290   35.6994 N   0  0  0  0  0  0  0  0  0  0  0  0
    0.4685   -5.5918   36.9856 S   0  0  0  0  0  0  0  0  0  0  0  0
    1.7983   -5.3859   36.4716 O   0  0  0  0  0  0  0  0  0  0  0  0
    0.0542   -6.7516   37.7266 O   0  0  0  0  0  0  0  0  0  0  0  0
    0.1553   -4.2264   37.8992 N   0  0  0  0  0  0  0  0  0  0  0  0
    1.3296   -3.5788   38.5397 C   0  0  0  0  0  0  0  0  0  0  0  0
    0.8676   -2.4648   39.5087 C   0  0  0  0  0  0  0  0  0  0  0  0
   -0.3811   -1.7992   39.0781 N   0  0  0  0  0  0  0  0  0  0  0  0
   -1.4728   -2.7930   39.0066 C   0  0  0  0  0  0  0  0  0  0  0  0
   -1.0125   -4.2413   38.7723 C   0  0  0  0  0  0  0  0  0  0  0  0
   -0.9098   -6.5639   34.8659 C   0  0  0  0  0  0  0  0  0  0  0  0
    2.9073   -7.1955   38.2402 N   0  0  0  0  0  0  0  0  0  0  0  0
    2.7519   -6.1704   40.6787 H   0  0  0  0  0  0  0  0  0  0  0  0
    1.0783   -6.6474   40.2347 H   0  0  0  0  0  0  0  0  0  0  0  0
    2.0126   -7.6289   41.3998 H   0  0  0  0  0  0  0  0  0  0  0  0
    2.7154   -9.7340   40.3145 H   0  0  0  0  0  0  0  0  0  0  0  0
    3.5586  -10.4161   37.8061 H   0  0  0  0  0  0  0  0  0  0  0  0
    4.5188   -6.6625   34.4516 H   0  0  0  0  0  0  0  0  0  0  0  0
    1.5778   -6.4192   34.5597 H   0  0  0  0  0  0  0  0  0  0  0  0
    2.3180   -7.3901   33.3740 H   0  0  0  0  0  0  0  0  0  0  0  0
    2.3947   -4.4008   33.2642 H   0  0  0  0  0  0  0  0  0  0  0  0
    3.0516   -5.4886   32.0343 H   0  0  0  0  0  0  0  0  0  0  0  0
   -1.1634   -3.3417   33.1351 H   0  0  0  0  0  0  0  0  0  0  0  0
    0.5465   -3.1681   33.3218 H   0  0  0  0  0  0  0  0  0  0  0  0
   -1.2754   -3.3538   35.4095 H   0  0  0  0  0  0  0  0  0  0  0  0
    0.4445   -3.4583   35.4878 H   0  0  0  0  0  0  0  0  0  0  0  0
    1.9410   -3.1213   37.7534 H   0  0  0  0  0  0  0  0  0  0  0  0
    1.9344   -4.3093   39.0849 H   0  0  0  0  0  0  0  0  0  0  0  0
    1.6619   -1.7160   39.6036 H   0  0  0  0  0  0  0  0  0  0  0  0
    0.7216   -2.8803   40.5141 H   0  0  0  0  0  0  0  0  0  0  0  0
   -0.2153   -1.4722   38.1236 H   0  0  0  0  0  0  0  0  0  0  0  0
   -2.0619   -2.7495   39.9297 H   0  0  0  0  0  0  0  0  0  0  0  0
   -2.1477   -2.4887   38.1972 H   0  0  0  0  0  0  0  0  0  0  0  0
   -1.8173   -4.7776   38.3046 H   0  0  0  0  0  0  0  0  0  0  0  0
   -0.7729   -4.7338   39.7219 H   0  0  0  0  0  0  0  0  0  0  0  0
   -1.9435   -6.8571   34.9803 H   0  0  0  0  0  0  0  0  0  0  0  0
   -0.3289   -7.4210   35.2256 H   0  0  0  0  0  0  0  0  0  0  0  0
  1  2  1  0
  2  3  1  0
  3  4  2  0
  4  5  1  0
  5  6  1  0
  6  7  2  0
  6  8  2  0
  6  9  1  0
  9 10  1  0
 10 11  1  0
 11 12  1  0
 12 13  1  0
 13 14  2  0
 14 15  1  0
 15 16  2  0
 16 17  1  0
 17 18  1  0
 18 19  1  0
 19 20  1  0
 20 21  2  0
 20 22  2  0
 20 23  1  0
 23 24  1  0
 24 25  1  0
 25 26  1  0
 26 27  1  0
 27 28  1  0
 19 29  1  0
  5 30  2  0
 30  2  1  0
 16 12  1  0
 28 23  1  0
 29 15  1  0
  1 31  1  0
  1 32  1  0
  1 33  1  0
  3 34  1  0
  4 35  1  0
  9 36  1  0
 10 37  1  0
 10 38  1  0
 11 39  1  0
 11 40  1  0
 17 41  1  0
 17 42  1  0
 18 43  1  0
 18 44  1  0
 24 45  1  0
 24 46  1  0
 25 47  1  0
 25 48  1  0
 26 49  1  0
 27 50  1  0
 27 51  1  0
 28 52  1  0
 28 53  1  0
 29 54  1  0
 29 55  1  0
M  END
>  <Energy>  (286) 
23.368240379763204

>  <compound_id>  (286) 
2521

>  <target_id>  (286) 
1

>  <reference_id>  (286) 
167

>  <inspiration_ids>  (286) 
[168, 167]

>  <energy_score>  (286) 
-21.068574978632412

>  <distance_score>  (286) 
1.5558797620858122

>  <path>  (286) 
/opt/xchem-fragalysis-2/maxwin/BulkDock/SCRATCH/505736/C2521-P167/C2521-P167.minimised.mol

>  <scratch_subdir>  (286) 
/opt/xchem-fragalysis-2/maxwin/BulkDock/SCRATCH/505736/C2521-P167

>  <fragmenstein_runtime>  (286) 
4.918399810791016

>  <fragmenstein_outcome>  (286) 
too moved

>  <fragmenstein_mode>  (286) 
expansion

>  <fragmenstein_error>  (286) 


$$$$
C2521-P168
     RDKit          3D

 55 58  0  0  0  0  0  0  0  0999 V2000
    7.6748   -5.9993   30.5597 C   0  0  0  0  0  0  0  0  0  0  0  0
    7.0130   -6.5261   29.3888 N   0  0  0  0  0  0  0  0  0  0  0  0
    7.4437   -7.5609   28.6095 C   0  0  0  0  0  0  0  0  0  0  0  0
    6.5916   -7.6065   27.5329 C   0  0  0  0  0  0  0  0  0  0  0  0
    5.6419   -6.5906   27.7861 C   0  0  0  0  0  0  0  0  0  0  0  0
    4.3555   -6.1754   26.6847 S   0  0  0  0  0  0  0  0  0  0  0  0
    3.8309   -7.4543   26.2585 O   0  0  0  0  0  0  0  0  0  0  0  0
    4.9666   -5.1991   25.8190 O   0  0  0  0  0  0  0  0  0  0  0  0
    3.0746   -5.3554   27.5155 N   0  0  0  0  0  0  0  0  0  0  0  0
    2.4165   -6.1168   28.6132 C   0  0  0  0  0  0  0  0  0  0  0  0
    1.0987   -5.5047   29.1253 C   0  0  0  0  0  0  0  0  0  0  0  0
    0.4841   -6.2309   30.2524 N   0  0  0  0  0  0  0  0  0  0  0  0
   -0.3812   -7.2539   30.0137 N   0  0  0  0  0  0  0  0  0  0  0  0
   -0.9070   -7.6531   31.1761 N   0  0  0  0  0  0  0  0  0  0  0  0
   -0.3566   -6.8978   32.1693 C   0  0  0  0  0  0  0  0  0  0  0  0
    0.5244   -5.9993   31.6063 C   0  0  0  0  0  0  0  0  0  0  0  0
    1.2716   -5.0119   32.4131 C   0  0  0  0  0  0  0  0  0  0  0  0
    0.4535   -4.6993   33.6921 C   0  0  0  0  0  0  0  0  0  0  0  0
   -0.0246   -5.9143   34.4167 N   0  0  0  0  0  0  0  0  0  0  0  0
    0.6698   -6.3050   35.8879 S   0  0  0  0  0  0  0  0  0  0  0  0
    2.0983   -6.3642   35.6799 O   0  0  0  0  0  0  0  0  0  0  0  0
   -0.0557   -7.4021   36.4798 O   0  0  0  0  0  0  0  0  0  0  0  0
    0.3069   -4.9134   36.7651 N   0  0  0  0  0  0  0  0  0  0  0  0
    1.2126   -4.6501   37.9303 C   0  0  0  0  0  0  0  0  0  0  0  0
    0.5924   -3.6316   38.9200 C   0  0  0  0  0  0  0  0  0  0  0  0
   -0.2808   -2.6397   38.2653 N   0  0  0  0  0  0  0  0  0  0  0  0
   -1.4101   -3.3357   37.6126 C   0  0  0  0  0  0  0  0  0  0  0  0
   -1.1211   -4.7841   37.1684 C   0  0  0  0  0  0  0  0  0  0  0  0
   -0.6742   -7.0046   33.6308 C   0  0  0  0  0  0  0  0  0  0  0  0
    5.8541   -5.9728   28.9645 N   0  0  0  0  0  0  0  0  0  0  0  0
    8.1720   -5.0685   30.2767 H   0  0  0  0  0  0  0  0  0  0  0  0
    6.9275   -5.8129   31.3346 H   0  0  0  0  0  0  0  0  0  0  0  0
    8.4071   -6.7269   30.9183 H   0  0  0  0  0  0  0  0  0  0  0  0
    8.3298   -8.1317   28.8511 H   0  0  0  0  0  0  0  0  0  0  0  0
    6.6449   -8.2580   26.6696 H   0  0  0  0  0  0  0  0  0  0  0  0
    3.4750   -4.4581   27.8137 H   0  0  0  0  0  0  0  0  0  0  0  0
    3.1207   -6.1291   29.4435 H   0  0  0  0  0  0  0  0  0  0  0  0
    2.2129   -7.1370   28.2869 H   0  0  0  0  0  0  0  0  0  0  0  0
    0.3500   -5.4708   28.3258 H   0  0  0  0  0  0  0  0  0  0  0  0
    1.2604   -4.4754   29.4633 H   0  0  0  0  0  0  0  0  0  0  0  0
    1.4494   -4.0872   31.8557 H   0  0  0  0  0  0  0  0  0  0  0  0
    2.2439   -5.4343   32.6914 H   0  0  0  0  0  0  0  0  0  0  0  0
   -0.4365   -4.1129   33.4270 H   0  0  0  0  0  0  0  0  0  0  0  0
    1.0545   -4.0602   34.3478 H   0  0  0  0  0  0  0  0  0  0  0  0
    2.1460   -4.2354   37.5323 H   0  0  0  0  0  0  0  0  0  0  0  0
    1.4384   -5.5795   38.4647 H   0  0  0  0  0  0  0  0  0  0  0  0
    1.3971   -3.1115   39.4516 H   0  0  0  0  0  0  0  0  0  0  0  0
    0.0166   -4.1632   39.6885 H   0  0  0  0  0  0  0  0  0  0  0  0
    0.2713   -2.2086   37.5214 H   0  0  0  0  0  0  0  0  0  0  0  0
   -2.2723   -3.3341   38.2891 H   0  0  0  0  0  0  0  0  0  0  0  0
   -1.7051   -2.7430   36.7382 H   0  0  0  0  0  0  0  0  0  0  0  0
   -1.7817   -5.0418   36.3389 H   0  0  0  0  0  0  0  0  0  0  0  0
   -1.3244   -5.4733   37.9969 H   0  0  0  0  0  0  0  0  0  0  0  0
   -1.7545   -6.9387   33.7791 H   0  0  0  0  0  0  0  0  0  0  0  0
   -0.3462   -7.9819   33.9847 H   0  0  0  0  0  0  0  0  0  0  0  0
  1  2  1  0
  2  3  1  0
  3  4  2  0
  4  5  1  0
  5  6  1  0
  6  7  2  0
  6  8  2  0
  6  9  1  0
  9 10  1  0
 10 11  1  0
 11 12  1  0
 12 13  1  0
 13 14  2  0
 14 15  1  0
 15 16  2  0
 16 17  1  0
 17 18  1  0
 18 19  1  0
 19 20  1  0
 20 21  2  0
 20 22  2  0
 20 23  1  0
 23 24  1  0
 24 25  1  0
 25 26  1  0
 26 27  1  0
 27 28  1  0
 19 29  1  0
  5 30  2  0
 30  2  1  0
 16 12  1  0
 28 23  1  0
 29 15  1  0
  1 31  1  0
  1 32  1  0
  1 33  1  0
  3 34  1  0
  4 35  1  0
  9 36  1  0
 10 37  1  0
 10 38  1  0
 11 39  1  0
 11 40  1  0
 17 41  1  0
 17 42  1  0
 18 43  1  0
 18 44  1  0
 24 45  1  0
 24 46  1  0
 25 47  1  0
 25 48  1  0
 26 49  1  0
 27 50  1  0
 27 51  1  0
 28 52  1  0
 28 53  1  0
 29 54  1  0
 29 55  1  0
M  END
>  <Energy>  (287) 
-54.167366788105127

>  <compound_id>  (287) 
2521

>  <target_id>  (287) 
1

>  <reference_id>  (287) 
168

>  <inspiration_ids>  (287) 
[168, 175]

>  <energy_score>  (287) 
-98.60418214650304

>  <distance_score>  (287) 
1.1190301663041435

>  <path>  (287) 
/opt/xchem-fragalysis-2/maxwin/BulkDock/SCRATCH/505736/C2521-P168/C2521-P168.minimised.mol

>  <scratch_subdir>  (287) 
/opt/xchem-fragalysis-2/maxwin/BulkDock/SCRATCH/505736/C2521-P168

>  <fragmenstein_runtime>  (287) 
5.915436267852783

>  <fragmenstein_outcome>  (287) 
too moved

>  <fragmenstein_mode>  (287) 
expansion

>  <fragmenstein_error>  (287) 


$$$$
C2521-P175
     RDKit          3D

 55 58  0  0  0  0  0  0  0  0999 V2000
    7.8807   -6.6481   30.5225 C   0  0  0  0  0  0  0  0  0  0  0  0
    7.2129   -6.9279   29.2730 N   0  0  0  0  0  0  0  0  0  0  0  0
    7.6621   -7.7637   28.2929 C   0  0  0  0  0  0  0  0  0  0  0  0
    6.7965   -7.6125   27.2361 C   0  0  0  0  0  0  0  0  0  0  0  0
    5.8261   -6.6927   27.6955 C   0  0  0  0  0  0  0  0  0  0  0  0
    4.4609   -6.1768   26.7381 S   0  0  0  0  0  0  0  0  0  0  0  0
    3.8148   -7.4152   26.3501 O   0  0  0  0  0  0  0  0  0  0  0  0
    4.9899   -5.2318   25.7847 O   0  0  0  0  0  0  0  0  0  0  0  0
    3.3158   -5.3317   27.6990 N   0  0  0  0  0  0  0  0  0  0  0  0
    2.7278   -6.0911   28.8326 C   0  0  0  0  0  0  0  0  0  0  0  0
    1.6291   -5.3305   29.6050 C   0  0  0  0  0  0  0  0  0  0  0  0
    0.9003   -6.1232   30.6077 N   0  0  0  0  0  0  0  0  0  0  0  0
    0.1676   -7.2150   30.2587 N   0  0  0  0  0  0  0  0  0  0  0  0
   -0.4494   -7.6848   31.3490 N   0  0  0  0  0  0  0  0  0  0  0  0
   -0.0945   -6.8982   32.4056 C   0  0  0  0  0  0  0  0  0  0  0  0
    0.7398   -5.9021   31.9488 C   0  0  0  0  0  0  0  0  0  0  0  0
    1.2436   -4.8194   32.8126 C   0  0  0  0  0  0  0  0  0  0  0  0
    0.2136   -4.6094   33.9423 C   0  0  0  0  0  0  0  0  0  0  0  0
   -0.1493   -5.8703   34.6634 N   0  0  0  0  0  0  0  0  0  0  0  0
    0.6734   -6.2062   36.0854 S   0  0  0  0  0  0  0  0  0  0  0  0
    2.0875   -6.2006   35.7874 O   0  0  0  0  0  0  0  0  0  0  0  0
    0.0474   -7.3122   36.7613 O   0  0  0  0  0  0  0  0  0  0  0  0
    0.3051   -4.8104   36.9580 N   0  0  0  0  0  0  0  0  0  0  0  0
    1.2167   -4.5376   38.1120 C   0  0  0  0  0  0  0  0  0  0  0  0
    0.5999   -3.5094   39.0925 C   0  0  0  0  0  0  0  0  0  0  0  0
   -0.2906   -2.5362   38.4323 N   0  0  0  0  0  0  0  0  0  0  0  0
   -1.4276   -3.2573   37.8183 C   0  0  0  0  0  0  0  0  0  0  0  0
   -1.1228   -4.7016   37.3709 C   0  0  0  0  0  0  0  0  0  0  0  0
   -0.5615   -7.0487   33.8240 C   0  0  0  0  0  0  0  0  0  0  0  0
    6.0444   -6.3254   28.9750 N   0  0  0  0  0  0  0  0  0  0  0  0
    8.7144   -5.9725   30.3167 H   0  0  0  0  0  0  0  0  0  0  0  0
    7.1772   -6.1780   31.2140 H   0  0  0  0  0  0  0  0  0  0  0  0
    8.2434   -7.5890   30.9436 H   0  0  0  0  0  0  0  0  0  0  0  0
    8.5647   -8.3487   28.4069 H   0  0  0  0  0  0  0  0  0  0  0  0
    6.8472   -8.0862   26.2635 H   0  0  0  0  0  0  0  0  0  0  0  0
    2.6418   -4.8859   27.0776 H   0  0  0  0  0  0  0  0  0  0  0  0
    3.5340   -6.2854   29.5396 H   0  0  0  0  0  0  0  0  0  0  0  0
    2.3612   -7.0538   28.4798 H   0  0  0  0  0  0  0  0  0  0  0  0
    2.0991   -4.4980   30.1411 H   0  0  0  0  0  0  0  0  0  0  0  0
    0.8789   -4.8767   28.9544 H   0  0  0  0  0  0  0  0  0  0  0  0
    1.3676   -3.8835   32.2592 H   0  0  0  0  0  0  0  0  0  0  0  0
    2.2167   -5.1012   33.2287 H   0  0  0  0  0  0  0  0  0  0  0  0
   -0.7170   -4.1966   33.5293 H   0  0  0  0  0  0  0  0  0  0  0  0
    0.5923   -3.8497   34.6333 H   0  0  0  0  0  0  0  0  0  0  0  0
    2.1477   -4.1260   37.7053 H   0  0  0  0  0  0  0  0  0  0  0  0
    1.4468   -5.4609   38.6551 H   0  0  0  0  0  0  0  0  0  0  0  0
    1.4065   -2.9730   39.6047 H   0  0  0  0  0  0  0  0  0  0  0  0
    0.0392   -4.0333   39.8773 H   0  0  0  0  0  0  0  0  0  0  0  0
    0.2443   -2.1274   37.6634 H   0  0  0  0  0  0  0  0  0  0  0  0
   -2.2697   -3.2687   38.5197 H   0  0  0  0  0  0  0  0  0  0  0  0
   -1.7598   -2.6741   36.9508 H   0  0  0  0  0  0  0  0  0  0  0  0
   -1.7867   -4.9599   36.5420 H   0  0  0  0  0  0  0  0  0  0  0  0
   -1.3109   -5.3943   38.1997 H   0  0  0  0  0  0  0  0  0  0  0  0
   -1.6525   -7.1203   33.8510 H   0  0  0  0  0  0  0  0  0  0  0  0
   -0.1506   -7.9742   34.2318 H   0  0  0  0  0  0  0  0  0  0  0  0
  1  2  1  0
  2  3  1  0
  3  4  2  0
  4  5  1  0
  5  6  1  0
  6  7  2  0
  6  8  2  0
  6  9  1  0
  9 10  1  0
 10 11  1  0
 11 12  1  0
 12 13  1  0
 13 14  2  0
 14 15  1  0
 15 16  2  0
 16 17  1  0
 17 18  1  0
 18 19  1  0
 19 20  1  0
 20 21  2  0
 20 22  2  0
 20 23  1  0
 23 24  1  0
 24 25  1  0
 25 26  1  0
 26 27  1  0
 27 28  1  0
 19 29  1  0
  5 30  2  0
 30  2  1  0
 16 12  1  0
 28 23  1  0
 29 15  1  0
  1 31  1  0
  1 32  1  0
  1 33  1  0
  3 34  1  0
  4 35  1  0
  9 36  1  0
 10 37  1  0
 10 38  1  0
 11 39  1  0
 11 40  1  0
 17 41  1  0
 17 42  1  0
 18 43  1  0
 18 44  1  0
 24 45  1  0
 24 46  1  0
 25 47  1  0
 25 48  1  0
 26 49  1  0
 27 50  1  0
 27 51  1  0
 28 52  1  0
 28 53  1  0
 29 54  1  0
 29 55  1  0
M  END
>  <Energy>  (288) 
-53.1389646856749

>  <compound_id>  (288) 
2521

>  <target_id>  (288) 
1

>  <reference_id>  (288) 
175

>  <inspiration_ids>  (288) 
[168, 175]

>  <energy_score>  (288) 
-97.57578004407281

>  <distance_score>  (288) 
1.1915969891879732

>  <path>  (288) 
/opt/xchem-fragalysis-2/maxwin/BulkDock/SCRATCH/505736/C2521-P175/C2521-P175.minimised.mol

>  <scratch_subdir>  (288) 
/opt/xchem-fragalysis-2/maxwin/BulkDock/SCRATCH/505736/C2521-P175

>  <fragmenstein_runtime>  (288) 
5.1288182735443115

>  <fragmenstein_outcome>  (288) 
too moved

>  <fragmenstein_mode>  (288) 
expansion

>  <fragmenstein_error>  (288) 


$$$$
C2522-P168
     RDKit          3D

 51 54  0  0  0  0  0  0  0  0999 V2000
    2.4598   -5.6027   26.7934 O   0  0  0  0  0  0  0  0  0  0  0  0
    2.8370   -5.3207   28.1577 S   0  0  0  0  0  0  0  0  0  0  0  0
    4.1823   -5.5213   28.6375 O   0  0  0  0  0  0  0  0  0  0  0  0
    1.8423   -6.3004   29.0941 N   0  0  0  0  0  0  0  0  0  0  0  0
    0.3967   -5.9944   29.1256 C   0  0  0  0  0  0  0  0  0  0  0  0
   -0.3380   -7.2215   29.6306 C   0  0  0  0  0  0  0  0  0  0  0  0
   -0.6850   -7.2946   31.0275 N   0  0  0  0  0  0  0  0  0  0  0  0
   -1.7046   -8.1307   31.3068 N   0  0  0  0  0  0  0  0  0  0  0  0
   -1.8817   -8.1611   32.6148 N   0  0  0  0  0  0  0  0  0  0  0  0
   -0.9702   -7.3323   33.1691 C   0  0  0  0  0  0  0  0  0  0  0  0
   -0.2135   -6.7382   32.1785 C   0  0  0  0  0  0  0  0  0  0  0  0
    0.8826   -5.7799   32.4681 C   0  0  0  0  0  0  0  0  0  0  0  0
    0.7372   -5.2629   33.9313 C   0  0  0  0  0  0  0  0  0  0  0  0
    0.4331   -6.3798   34.8690 N   0  0  0  0  0  0  0  0  0  0  0  0
    0.9963   -6.3014   36.4332 S   0  0  0  0  0  0  0  0  0  0  0  0
    2.4320   -6.1770   36.3278 O   0  0  0  0  0  0  0  0  0  0  0  0
    0.3789   -7.3479   37.2082 O   0  0  0  0  0  0  0  0  0  0  0  0
    0.3949   -4.8179   36.9704 N   0  0  0  0  0  0  0  0  0  0  0  0
    1.2618   -4.1992   38.0406 C   0  0  0  0  0  0  0  0  0  0  0  0
    0.4998   -3.1564   38.8887 C   0  0  0  0  0  0  0  0  0  0  0  0
   -0.5024   -2.4085   38.1121 N   0  0  0  0  0  0  0  0  0  0  0  0
   -1.5135   -3.3477   37.5892 C   0  0  0  0  0  0  0  0  0  0  0  0
   -1.0349   -4.8024   37.3885 C   0  0  0  0  0  0  0  0  0  0  0  0
   -0.8272   -7.1137   34.6297 C   0  0  0  0  0  0  0  0  0  0  0  0
    2.4347   -3.6676   28.3823 C   0  0  0  0  0  0  0  0  0  0  0  0
    3.3776   -2.6699   28.4299 C   0  0  0  0  0  0  0  0  0  0  0  0
    2.5906   -1.1543   28.4172 S   0  0  0  0  0  0  0  0  0  0  0  0
    1.0693   -1.9469   28.4007 C   0  0  0  0  0  0  0  0  0  0  0  0
    1.1033   -3.2612   28.4013 N   0  0  0  0  0  0  0  0  0  0  0  0
    1.9825   -7.2198   28.6842 H   0  0  0  0  0  0  0  0  0  0  0  0
    0.0581   -5.7967   28.1043 H   0  0  0  0  0  0  0  0  0  0  0  0
    0.1844   -5.1190   29.7394 H   0  0  0  0  0  0  0  0  0  0  0  0
   -1.2832   -7.2636   29.0791 H   0  0  0  0  0  0  0  0  0  0  0  0
    0.1952   -8.1507   29.3938 H   0  0  0  0  0  0  0  0  0  0  0  0
    1.8456   -6.2885   32.3596 H   0  0  0  0  0  0  0  0  0  0  0  0
    0.8712   -4.9220   31.7920 H   0  0  0  0  0  0  0  0  0  0  0  0
    1.6651   -4.7535   34.2117 H   0  0  0  0  0  0  0  0  0  0  0  0
   -0.0767   -4.5287   33.9871 H   0  0  0  0  0  0  0  0  0  0  0  0
    2.0968   -3.7023   37.5323 H   0  0  0  0  0  0  0  0  0  0  0  0
    1.6641   -4.9683   38.7097 H   0  0  0  0  0  0  0  0  0  0  0  0
    1.2181   -2.4538   39.3257 H   0  0  0  0  0  0  0  0  0  0  0  0
    0.0054   -3.6498   39.7353 H   0  0  0  0  0  0  0  0  0  0  0  0
   -0.0159   -2.0096   37.3070 H   0  0  0  0  0  0  0  0  0  0  0  0
   -1.8696   -2.9517   36.6303 H   0  0  0  0  0  0  0  0  0  0  0  0
   -2.3793   -3.3482   38.2609 H   0  0  0  0  0  0  0  0  0  0  0  0
   -1.1485   -5.3640   38.3239 H   0  0  0  0  0  0  0  0  0  0  0  0
   -1.6674   -5.2651   36.6328 H   0  0  0  0  0  0  0  0  0  0  0  0
   -1.6842   -6.5500   34.9935 H   0  0  0  0  0  0  0  0  0  0  0  0
   -0.8013   -8.0840   35.1300 H   0  0  0  0  0  0  0  0  0  0  0  0
    4.4565   -2.7511   28.4114 H   0  0  0  0  0  0  0  0  0  0  0  0
    0.1416   -1.3869   28.3745 H   0  0  0  0  0  0  0  0  0  0  0  0
  1  2  2  0
  2  3  2  0
  2  4  1  0
  4  5  1  0
  5  6  1  0
  6  7  1  0
  7  8  1  0
  8  9  2  0
  9 10  1  0
 10 11  2  0
 11 12  1  0
 12 13  1  0
 13 14  1  0
 14 15  1  0
 15 16  2  0
 15 17  2  0
 15 18  1  0
 18 19  1  0
 19 20  1  0
 20 21  1  0
 21 22  1  0
 22 23  1  0
 14 24  1  0
  2 25  1  0
 25 26  2  0
 26 27  1  0
 27 28  1  0
 28 29  2  0
 11  7  1  0
 23 18  1  0
 29 25  1  0
 24 10  1  0
  4 30  1  0
  5 31  1  0
  5 32  1  0
  6 33  1  0
  6 34  1  0
 12 35  1  0
 12 36  1  0
 13 37  1  0
 13 38  1  0
 19 39  1  0
 19 40  1  0
 20 41  1  0
 20 42  1  0
 21 43  1  0
 22 44  1  0
 22 45  1  0
 23 46  1  0
 23 47  1  0
 24 48  1  0
 24 49  1  0
 26 50  1  0
 28 51  1  0
M  END
>  <Energy>  (289) 
-73.13387435953868

>  <compound_id>  (289) 
2522

>  <target_id>  (289) 
1

>  <reference_id>  (289) 
168

>  <inspiration_ids>  (289) 
[168, 177]

>  <energy_score>  (289) 
-103.87724656199026

>  <distance_score>  (289) 
1.2489483717812122

>  <path>  (289) 
/opt/xchem-fragalysis-2/maxwin/BulkDock/SCRATCH/505736/C2522-P168/C2522-P168.minimised.mol

>  <scratch_subdir>  (289) 
/opt/xchem-fragalysis-2/maxwin/BulkDock/SCRATCH/505736/C2522-P168

>  <fragmenstein_runtime>  (289) 
4.292198657989502

>  <fragmenstein_outcome>  (289) 
too moved

>  <fragmenstein_mode>  (289) 
expansion

>  <fragmenstein_error>  (289) 


$$$$
C2522-P177
     RDKit          3D

 51 54  0  0  0  0  0  0  0  0999 V2000
    2.8297   -5.3363   26.4404 O   0  0  0  0  0  0  0  0  0  0  0  0
    2.7775   -4.7728   27.7629 S   0  0  0  0  0  0  0  0  0  0  0  0
    3.9667   -4.4856   28.5313 O   0  0  0  0  0  0  0  0  0  0  0  0
    1.8406   -5.8525   28.6538 N   0  0  0  0  0  0  0  0  0  0  0  0
    0.3685   -5.6713   28.7209 C   0  0  0  0  0  0  0  0  0  0  0  0
   -0.3076   -6.9256   29.2657 C   0  0  0  0  0  0  0  0  0  0  0  0
   -0.6233   -7.0407   30.6747 N   0  0  0  0  0  0  0  0  0  0  0  0
   -1.6079   -7.9267   30.9460 N   0  0  0  0  0  0  0  0  0  0  0  0
   -1.7829   -7.9904   32.2522 N   0  0  0  0  0  0  0  0  0  0  0  0
   -0.9166   -7.1294   32.8252 C   0  0  0  0  0  0  0  0  0  0  0  0
   -0.1725   -6.4954   31.8480 C   0  0  0  0  0  0  0  0  0  0  0  0
    0.8990   -5.5193   32.1748 C   0  0  0  0  0  0  0  0  0  0  0  0
    0.7685   -5.0668   33.6688 C   0  0  0  0  0  0  0  0  0  0  0  0
    0.4590   -6.2156   34.5703 N   0  0  0  0  0  0  0  0  0  0  0  0
    1.0095   -6.2097   36.1451 S   0  0  0  0  0  0  0  0  0  0  0  0
    2.4492   -6.1150   36.0615 O   0  0  0  0  0  0  0  0  0  0  0  0
    0.3680   -7.2734   36.8779 O   0  0  0  0  0  0  0  0  0  0  0  0
    0.4418   -4.7375   36.7490 N   0  0  0  0  0  0  0  0  0  0  0  0
    1.3005   -4.2127   37.8765 C   0  0  0  0  0  0  0  0  0  0  0  0
    0.5485   -3.2072   38.7774 C   0  0  0  0  0  0  0  0  0  0  0  0
   -0.4117   -2.3786   38.0309 N   0  0  0  0  0  0  0  0  0  0  0  0
   -1.4382   -3.2514   37.4271 C   0  0  0  0  0  0  0  0  0  0  0  0
   -0.9955   -4.7031   37.1395 C   0  0  0  0  0  0  0  0  0  0  0  0
   -0.8080   -6.9217   34.2924 C   0  0  0  0  0  0  0  0  0  0  0  0
    1.9099   -3.2976   27.6407 C   0  0  0  0  0  0  0  0  0  0  0  0
    2.3836   -2.1158   28.1561 C   0  0  0  0  0  0  0  0  0  0  0  0
    1.1917   -0.9138   27.9726 S   0  0  0  0  0  0  0  0  0  0  0  0
    0.1543   -2.0532   27.2222 C   0  0  0  0  0  0  0  0  0  0  0  0
    0.6193   -3.2731   27.1182 N   0  0  0  0  0  0  0  0  0  0  0  0
    2.0706   -6.7351   28.1731 H   0  0  0  0  0  0  0  0  0  0  0  0
   -0.0065   -5.5422   27.7029 H   0  0  0  0  0  0  0  0  0  0  0  0
    0.1135   -4.7925   29.3180 H   0  0  0  0  0  0  0  0  0  0  0  0
   -1.2704   -7.0013   28.7445 H   0  0  0  0  0  0  0  0  0  0  0  0
    0.2271   -7.8382   28.9819 H   0  0  0  0  0  0  0  0  0  0  0  0
    1.8745   -5.9952   32.0390 H   0  0  0  0  0  0  0  0  0  0  0  0
    0.8563   -4.6394   31.5269 H   0  0  0  0  0  0  0  0  0  0  0  0
    1.7025   -4.5780   33.9653 H   0  0  0  0  0  0  0  0  0  0  0  0
   -0.0384   -4.3284   33.7589 H   0  0  0  0  0  0  0  0  0  0  0  0
    2.1590   -3.7071   37.4186 H   0  0  0  0  0  0  0  0  0  0  0  0
    1.6687   -5.0342   38.5016 H   0  0  0  0  0  0  0  0  0  0  0  0
    1.2763   -2.5578   39.2766 H   0  0  0  0  0  0  0  0  0  0  0  0
    0.0200   -3.7412   39.5775 H   0  0  0  0  0  0  0  0  0  0  0  0
    0.1045   -1.9464   37.2623 H   0  0  0  0  0  0  0  0  0  0  0  0
   -1.7617   -2.7832   36.4894 H   0  0  0  0  0  0  0  0  0  0  0  0
   -2.3180   -3.2677   38.0795 H   0  0  0  0  0  0  0  0  0  0  0  0
   -1.1417   -5.3193   38.0345 H   0  0  0  0  0  0  0  0  0  0  0  0
   -1.6213   -5.0959   36.3395 H   0  0  0  0  0  0  0  0  0  0  0  0
   -1.6589   -6.3363   34.6359 H   0  0  0  0  0  0  0  0  0  0  0  0
   -0.8192   -7.8892   34.7934 H   0  0  0  0  0  0  0  0  0  0  0  0
    3.3389   -1.9109   28.6207 H   0  0  0  0  0  0  0  0  0  0  0  0
   -0.8341   -1.7793   26.8750 H   0  0  0  0  0  0  0  0  0  0  0  0
  1  2  2  0
  2  3  2  0
  2  4  1  0
  4  5  1  0
  5  6  1  0
  6  7  1  0
  7  8  1  0
  8  9  2  0
  9 10  1  0
 10 11  2  0
 11 12  1  0
 12 13  1  0
 13 14  1  0
 14 15  1  0
 15 16  2  0
 15 17  2  0
 15 18  1  0
 18 19  1  0
 19 20  1  0
 20 21  1  0
 21 22  1  0
 22 23  1  0
 14 24  1  0
  2 25  1  0
 25 26  2  0
 26 27  1  0
 27 28  1  0
 28 29  2  0
 11  7  1  0
 23 18  1  0
 29 25  1  0
 24 10  1  0
  4 30  1  0
  5 31  1  0
  5 32  1  0
  6 33  1  0
  6 34  1  0
 12 35  1  0
 12 36  1  0
 13 37  1  0
 13 38  1  0
 19 39  1  0
 19 40  1  0
 20 41  1  0
 20 42  1  0
 21 43  1  0
 22 44  1  0
 22 45  1  0
 23 46  1  0
 23 47  1  0
 24 48  1  0
 24 49  1  0
 26 50  1  0
 28 51  1  0
M  END
>  <Energy>  (290) 
-67.89699953448546

>  <compound_id>  (290) 
2522

>  <target_id>  (290) 
1

>  <reference_id>  (290) 
177

>  <inspiration_ids>  (290) 
[168, 177]

>  <energy_score>  (290) 
-98.64037173693545

>  <distance_score>  (290) 
1.3710386588221457

>  <path>  (290) 
/opt/xchem-fragalysis-2/maxwin/BulkDock/SCRATCH/505736/C2522-P177/C2522-P177.minimised.mol

>  <scratch_subdir>  (290) 
/opt/xchem-fragalysis-2/maxwin/BulkDock/SCRATCH/505736/C2522-P177

>  <fragmenstein_runtime>  (290) 
4.560655117034912

>  <fragmenstein_outcome>  (290) 
too moved

>  <fragmenstein_mode>  (290) 
expansion

>  <fragmenstein_error>  (290) 


$$$$
C2522-P168
     RDKit          2D

  0  0  0  0  0  0  0  0  0  0999 V2000
M  END
>  <compound_id>  (291) 
2522

>  <target_id>  (291) 
1

>  <reference_id>  (291) 
168

>  <inspiration_ids>  (291) 
[168, 180]

>  <energy_score>  (291) 
nan

>  <distance_score>  (291) 
nan

>  <path>  (291) 
/opt/xchem-fragalysis-2/maxwin/BulkDock/SCRATCH/505736/C2522-P168/C2522-P168.minimised.mol

>  <scratch_subdir>  (291) 
/opt/xchem-fragalysis-2/maxwin/BulkDock/SCRATCH/505736/C2522-P168

>  <fragmenstein_runtime>  (291) 
0.4417586326599121

>  <fragmenstein_outcome>  (291) 
too distant

>  <fragmenstein_mode>  (291) 
expansion

>  <fragmenstein_error>  (291) 
DistanceError: hit0+hit1

$$$$
C2523-P168
     RDKit          3D

 56 59  0  0  0  0  0  0  0  0999 V2000
   -0.6593    1.9504   27.6404 N   0  0  0  0  0  0  0  0  0  0  0  0
   -0.6479    0.8426   28.4798 C   0  0  0  0  0  0  0  0  0  0  0  0
   -1.0503   -0.4010   28.0257 C   0  0  0  0  0  0  0  0  0  0  0  0
   -1.0515   -1.4862   28.9004 C   0  0  0  0  0  0  0  0  0  0  0  0
   -0.6929   -1.2728   30.2223 C   0  0  0  0  0  0  0  0  0  0  0  0
   -0.7508   -2.5415   31.4292 S   0  0  0  0  0  0  0  0  0  0  0  0
   -1.9769   -3.2951   31.2951 O   0  0  0  0  0  0  0  0  0  0  0  0
   -0.3582   -1.9685   32.6966 O   0  0  0  0  0  0  0  0  0  0  0  0
    0.5304   -3.5263   30.9577 N   0  0  0  0  0  0  0  0  0  0  0  0
    0.3630   -4.4285   29.8052 C   0  0  0  0  0  0  0  0  0  0  0  0
    0.8917   -5.8307   30.1103 C   0  0  0  0  0  0  0  0  0  0  0  0
    0.1640   -6.5223   31.1516 N   0  0  0  0  0  0  0  0  0  0  0  0
   -0.8358   -7.3936   30.8795 N   0  0  0  0  0  0  0  0  0  0  0  0
   -1.3464   -7.8025   32.0462 N   0  0  0  0  0  0  0  0  0  0  0  0
   -0.6349   -7.2014   33.0458 C   0  0  0  0  0  0  0  0  0  0  0  0
    0.3519   -6.4296   32.4882 C   0  0  0  0  0  0  0  0  0  0  0  0
    1.2309   -5.5543   33.2808 C   0  0  0  0  0  0  0  0  0  0  0  0
    0.3318   -4.9893   34.3913 C   0  0  0  0  0  0  0  0  0  0  0  0
   -0.2560   -6.0926   35.2196 N   0  0  0  0  0  0  0  0  0  0  0  0
    0.5596   -6.4074   36.6446 S   0  0  0  0  0  0  0  0  0  0  0  0
    1.9664   -6.5061   36.3310 O   0  0  0  0  0  0  0  0  0  0  0  0
   -0.1370   -7.4441   37.3588 O   0  0  0  0  0  0  0  0  0  0  0  0
    0.2574   -4.9503   37.4064 N   0  0  0  0  0  0  0  0  0  0  0  0
    1.2213   -4.5253   38.4527 C   0  0  0  0  0  0  0  0  0  0  0  0
    0.6012   -3.5107   39.4424 C   0  0  0  0  0  0  0  0  0  0  0  0
   -0.2849   -2.5238   38.8115 N   0  0  0  0  0  0  0  0  0  0  0  0
   -1.3514   -3.1821   38.0366 C   0  0  0  0  0  0  0  0  0  0  0  0
   -1.1522   -4.6867   37.7733 C   0  0  0  0  0  0  0  0  0  0  0  0
   -0.8829   -7.2636   34.5150 C   0  0  0  0  0  0  0  0  0  0  0  0
   -0.2893   -0.0078   30.5965 C   0  0  0  0  0  0  0  0  0  0  0  0
   -0.2366    1.0390   29.7405 N   0  0  0  0  0  0  0  0  0  0  0  0
   -0.3787    2.7559   28.1975 H   0  0  0  0  0  0  0  0  0  0  0  0
   -1.5894    2.1064   27.2597 H   0  0  0  0  0  0  0  0  0  0  0  0
   -1.3944   -0.5210   27.0054 H   0  0  0  0  0  0  0  0  0  0  0  0
   -1.3982   -2.4508   28.5431 H   0  0  0  0  0  0  0  0  0  0  0  0
    1.4373   -3.0690   31.0713 H   0  0  0  0  0  0  0  0  0  0  0  0
    0.9219   -4.0083   28.9616 H   0  0  0  0  0  0  0  0  0  0  0  0
   -0.6817   -4.4996   29.4992 H   0  0  0  0  0  0  0  0  0  0  0  0
    0.8436   -6.4539   29.2098 H   0  0  0  0  0  0  0  0  0  0  0  0
    1.9407   -5.7795   30.4215 H   0  0  0  0  0  0  0  0  0  0  0  0
    1.6908   -4.7497   32.7097 H   0  0  0  0  0  0  0  0  0  0  0  0
    2.0481   -6.1485   33.7045 H   0  0  0  0  0  0  0  0  0  0  0  0
   -0.5039   -4.4131   33.9759 H   0  0  0  0  0  0  0  0  0  0  0  0
    0.9081   -4.2873   35.0027 H   0  0  0  0  0  0  0  0  0  0  0  0
    2.0735   -4.0573   37.9463 H   0  0  0  0  0  0  0  0  0  0  0  0
    1.5860   -5.3911   39.0165 H   0  0  0  0  0  0  0  0  0  0  0  0
    0.0386   -4.0526   40.2137 H   0  0  0  0  0  0  0  0  0  0  0  0
    1.4095   -2.9864   39.9642 H   0  0  0  0  0  0  0  0  0  0  0  0
   -0.6949   -1.9186   39.5208 H   0  0  0  0  0  0  0  0  0  0  0  0
   -1.4241   -2.6577   37.0766 H   0  0  0  0  0  0  0  0  0  0  0  0
   -2.3124   -3.0410   38.5452 H   0  0  0  0  0  0  0  0  0  0  0  0
   -1.4120   -5.2666   38.6668 H   0  0  0  0  0  0  0  0  0  0  0  0
   -1.8261   -4.9821   36.9650 H   0  0  0  0  0  0  0  0  0  0  0  0
   -1.9558   -7.2592   34.7231 H   0  0  0  0  0  0  0  0  0  0  0  0
   -0.4629   -8.1943   34.8992 H   0  0  0  0  0  0  0  0  0  0  0  0
    0.0186    0.2296   31.6115 H   0  0  0  0  0  0  0  0  0  0  0  0
  1  2  1  0
  2  3  2  0
  3  4  1  0
  4  5  2  0
  5  6  1  0
  6  7  2  0
  6  8  2  0
  6  9  1  0
  9 10  1  0
 10 11  1  0
 11 12  1  0
 12 13  1  0
 13 14  2  0
 14 15  1  0
 15 16  2  0
 16 17  1  0
 17 18  1  0
 18 19  1  0
 19 20  1  0
 20 21  2  0
 20 22  2  0
 20 23  1  0
 23 24  1  0
 24 25  1  0
 25 26  1  0
 26 27  1  0
 27 28  1  0
 19 29  1  0
  5 30  1  0
 30 31  2  0
 31  2  1  0
 16 12  1  0
 28 23  1  0
 29 15  1  0
  1 32  1  0
  1 33  1  0
  3 34  1  0
  4 35  1  0
  9 36  1  0
 10 37  1  0
 10 38  1  0
 11 39  1  0
 11 40  1  0
 17 41  1  0
 17 42  1  0
 18 43  1  0
 18 44  1  0
 24 45  1  0
 24 46  1  0
 25 47  1  0
 25 48  1  0
 26 49  1  0
 27 50  1  0
 27 51  1  0
 28 52  1  0
 28 53  1  0
 29 54  1  0
 29 55  1  0
 30 56  1  0
M  END
>  <Energy>  (292) 
-174.37600214519273

>  <compound_id>  (292) 
2523

>  <target_id>  (292) 
1

>  <reference_id>  (292) 
168

>  <inspiration_ids>  (292) 
[168, 186]

>  <energy_score>  (292) 
-111.34517089267857

>  <distance_score>  (292) 
0.7318204834589834

>  <path>  (292) 
/opt/xchem-fragalysis-2/maxwin/BulkDock/SCRATCH/505736/C2523-P168/C2523-P168.minimised.mol

>  <scratch_subdir>  (292) 
/opt/xchem-fragalysis-2/maxwin/BulkDock/SCRATCH/505736/C2523-P168

>  <fragmenstein_runtime>  (292) 
5.650492906570435

>  <fragmenstein_outcome>  (292) 
acceptable

>  <fragmenstein_mode>  (292) 
expansion

>  <fragmenstein_error>  (292) 


$$$$
C2523-P186
     RDKit          3D

 56 59  0  0  0  0  0  0  0  0999 V2000
    0.7619    1.6269   28.2200 N   0  0  0  0  0  0  0  0  0  0  0  0
   -0.0279    0.7193   28.8986 C   0  0  0  0  0  0  0  0  0  0  0  0
   -0.4280   -0.4774   28.3141 C   0  0  0  0  0  0  0  0  0  0  0  0
   -0.9602   -1.4872   29.1087 C   0  0  0  0  0  0  0  0  0  0  0  0
   -0.9914   -1.2775   30.4789 C   0  0  0  0  0  0  0  0  0  0  0  0
   -1.0913   -2.6112   31.6128 S   0  0  0  0  0  0  0  0  0  0  0  0
   -2.2605   -3.4084   31.3340 O   0  0  0  0  0  0  0  0  0  0  0  0
   -0.8259   -2.0804   32.9309 O   0  0  0  0  0  0  0  0  0  0  0  0
    0.2902   -3.4973   31.2065 N   0  0  0  0  0  0  0  0  0  0  0  0
    0.2916   -4.3667   30.0098 C   0  0  0  0  0  0  0  0  0  0  0  0
    0.9682   -5.7060   30.2995 C   0  0  0  0  0  0  0  0  0  0  0  0
    0.2759   -6.4947   31.2932 N   0  0  0  0  0  0  0  0  0  0  0  0
   -0.6738   -7.4079   30.9858 N   0  0  0  0  0  0  0  0  0  0  0  0
   -1.1828   -7.8615   32.1386 N   0  0  0  0  0  0  0  0  0  0  0  0
   -0.5160   -7.2448   33.1619 C   0  0  0  0  0  0  0  0  0  0  0  0
    0.4423   -6.4215   32.6314 C   0  0  0  0  0  0  0  0  0  0  0  0
    1.2477   -5.4892   33.4346 C   0  0  0  0  0  0  0  0  0  0  0  0
    0.2827   -4.9771   34.5116 C   0  0  0  0  0  0  0  0  0  0  0  0
   -0.2358   -6.1132   35.3424 N   0  0  0  0  0  0  0  0  0  0  0  0
    0.6374   -6.3867   36.7433 S   0  0  0  0  0  0  0  0  0  0  0  0
    2.0365   -6.4510   36.3892 O   0  0  0  0  0  0  0  0  0  0  0  0
    0.0001   -7.4301   37.4993 O   0  0  0  0  0  0  0  0  0  0  0  0
    0.3246   -4.9248   37.4941 N   0  0  0  0  0  0  0  0  0  0  0  0
    1.2845   -4.4860   38.5366 C   0  0  0  0  0  0  0  0  0  0  0  0
    0.6572   -3.4675   39.5175 C   0  0  0  0  0  0  0  0  0  0  0  0
   -0.2314   -2.4884   38.8778 N   0  0  0  0  0  0  0  0  0  0  0  0
   -1.2957   -3.1596   38.1094 C   0  0  0  0  0  0  0  0  0  0  0  0
   -1.0870   -4.6647   37.8570 C   0  0  0  0  0  0  0  0  0  0  0  0
   -0.7965   -7.3165   34.6271 C   0  0  0  0  0  0  0  0  0  0  0  0
   -0.6783   -0.0273   30.9747 C   0  0  0  0  0  0  0  0  0  0  0  0
   -0.2225    0.9778   30.1992 N   0  0  0  0  0  0  0  0  0  0  0  0
    0.4483    1.8747   27.2859 H   0  0  0  0  0  0  0  0  0  0  0  0
    0.9024    2.4505   28.7968 H   0  0  0  0  0  0  0  0  0  0  0  0
   -0.2444   -0.6652   27.2648 H   0  0  0  0  0  0  0  0  0  0  0  0
   -1.2377   -2.4379   28.6634 H   0  0  0  0  0  0  0  0  0  0  0  0
    1.1440   -2.9604   31.3763 H   0  0  0  0  0  0  0  0  0  0  0  0
    0.8432   -3.8541   29.2146 H   0  0  0  0  0  0  0  0  0  0  0  0
   -0.7230   -4.5439   29.6523 H   0  0  0  0  0  0  0  0  0  0  0  0
    1.0474   -6.3146   29.3987 H   0  0  0  0  0  0  0  0  0  0  0  0
    1.9909   -5.5454   30.6598 H   0  0  0  0  0  0  0  0  0  0  0  0
    1.6679   -4.6588   32.8689 H   0  0  0  0  0  0  0  0  0  0  0  0
    2.0930   -6.0269   33.8760 H   0  0  0  0  0  0  0  0  0  0  0  0
   -0.5873   -4.4765   34.0710 H   0  0  0  0  0  0  0  0  0  0  0  0
    0.7873   -4.2213   35.1215 H   0  0  0  0  0  0  0  0  0  0  0  0
    2.1342   -4.0166   38.0273 H   0  0  0  0  0  0  0  0  0  0  0  0
    1.6545   -5.3447   39.1077 H   0  0  0  0  0  0  0  0  0  0  0  0
    0.0953   -4.0063   40.2916 H   0  0  0  0  0  0  0  0  0  0  0  0
    1.4619   -2.9358   40.0375 H   0  0  0  0  0  0  0  0  0  0  0  0
   -0.6475   -1.8823   39.5826 H   0  0  0  0  0  0  0  0  0  0  0  0
   -1.3723   -2.6426   37.1457 H   0  0  0  0  0  0  0  0  0  0  0  0
   -2.2570   -3.0201   38.6177 H   0  0  0  0  0  0  0  0  0  0  0  0
   -1.3462   -5.2416   38.7522 H   0  0  0  0  0  0  0  0  0  0  0  0
   -1.7546   -4.9614   37.0451 H   0  0  0  0  0  0  0  0  0  0  0  0
   -1.8744   -7.3512   34.8066 H   0  0  0  0  0  0  0  0  0  0  0  0
   -0.3496   -8.2296   35.0264 H   0  0  0  0  0  0  0  0  0  0  0  0
   -0.6993    0.2017   32.0371 H   0  0  0  0  0  0  0  0  0  0  0  0
  1  2  1  0
  2  3  2  0
  3  4  1  0
  4  5  2  0
  5  6  1  0
  6  7  2  0
  6  8  2  0
  6  9  1  0
  9 10  1  0
 10 11  1  0
 11 12  1  0
 12 13  1  0
 13 14  2  0
 14 15  1  0
 15 16  2  0
 16 17  1  0
 17 18  1  0
 18 19  1  0
 19 20  1  0
 20 21  2  0
 20 22  2  0
 20 23  1  0
 23 24  1  0
 24 25  1  0
 25 26  1  0
 26 27  1  0
 27 28  1  0
 19 29  1  0
  5 30  1  0
 30 31  2  0
 31  2  1  0
 16 12  1  0
 28 23  1  0
 29 15  1  0
  1 32  1  0
  1 33  1  0
  3 34  1  0
  4 35  1  0
  9 36  1  0
 10 37  1  0
 10 38  1  0
 11 39  1  0
 11 40  1  0
 17 41  1  0
 17 42  1  0
 18 43  1  0
 18 44  1  0
 24 45  1  0
 24 46  1  0
 25 47  1  0
 25 48  1  0
 26 49  1  0
 27 50  1  0
 27 51  1  0
 28 52  1  0
 28 53  1  0
 29 54  1  0
 29 55  1  0
 30 56  1  0
M  END
>  <Energy>  (293) 
-167.22265335850796

>  <compound_id>  (293) 
2523

>  <target_id>  (293) 
1

>  <reference_id>  (293) 
186

>  <inspiration_ids>  (293) 
[168, 186]

>  <energy_score>  (293) 
-104.19182210599317

>  <distance_score>  (293) 
0.7836180267759352

>  <path>  (293) 
/opt/xchem-fragalysis-2/maxwin/BulkDock/SCRATCH/505736/C2523-P186/C2523-P186.minimised.mol

>  <scratch_subdir>  (293) 
/opt/xchem-fragalysis-2/maxwin/BulkDock/SCRATCH/505736/C2523-P186

>  <fragmenstein_runtime>  (293) 
5.009318590164185

>  <fragmenstein_outcome>  (293) 
acceptable

>  <fragmenstein_mode>  (293) 
expansion

>  <fragmenstein_error>  (293) 


$$$$
C2524-P168
     RDKit          3D

 64 65  0  0  0  0  0  0  0  0999 V2000
   -0.9961   -0.5030   28.6423 C   0  0  0  0  0  0  0  0  0  0  0  0
   -0.6729   -1.9780   28.8274 C   0  0  0  0  0  0  0  0  0  0  0  0
   -0.3426   -2.3318   30.2825 C   0  0  0  0  0  0  0  0  0  0  0  0
    0.6673   -3.5063   30.4624 C   0  0  0  0  0  0  0  0  0  0  0  0
    1.9907   -3.1690   29.7927 C   0  0  0  0  0  0  0  0  0  0  0  0
    3.0027   -2.4080   30.2478 C   0  0  0  0  0  0  0  0  0  0  0  0
    3.1642   -1.6517   31.5114 C   0  0  0  0  0  0  0  0  0  0  0  0
    4.0107   -0.7777   31.6226 O   0  0  0  0  0  0  0  0  0  0  0  0
    2.3125   -2.0617   32.4773 O   0  0  0  0  0  0  0  0  0  0  0  0
    2.3976   -1.3473   33.7211 C   0  0  0  0  0  0  0  0  0  0  0  0
    3.5409   -1.8681   34.5731 C   0  0  0  0  0  0  0  0  0  0  0  0
    0.1372   -4.8903   29.9740 C   0  0  0  0  0  0  0  0  0  0  0  0
   -0.4325   -5.7501   31.0035 N   0  0  0  0  0  0  0  0  0  0  0  0
   -0.8858   -5.4065   32.2384 C   0  0  0  0  0  0  0  0  0  0  0  0
   -0.8167   -6.5881   32.9494 C   0  0  0  0  0  0  0  0  0  0  0  0
   -0.7633   -6.7743   34.4316 C   0  0  0  0  0  0  0  0  0  0  0  0
    0.5346   -6.3312   34.9996 N   0  0  0  0  0  0  0  0  0  0  0  0
    1.2514   -5.1775   34.4222 C   0  0  0  0  0  0  0  0  0  0  0  0
    2.2477   -5.6526   33.3820 C   0  0  0  0  0  0  0  0  0  0  0  0
    0.7842   -6.5658   36.6413 S   0  0  0  0  0  0  0  0  0  0  0  0
    2.2153   -6.6787   36.8049 O   0  0  0  0  0  0  0  0  0  0  0  0
   -0.1326   -7.5707   37.1098 O   0  0  0  0  0  0  0  0  0  0  0  0
    0.3045   -5.0708   37.2421 N   0  0  0  0  0  0  0  0  0  0  0  0
    1.2172   -4.4571   38.2561 C   0  0  0  0  0  0  0  0  0  0  0  0
    0.5119   -3.3897   39.1225 C   0  0  0  0  0  0  0  0  0  0  0  0
   -0.4307   -2.5534   38.3695 N   0  0  0  0  0  0  0  0  0  0  0  0
   -1.4498   -3.3833   37.7052 C   0  0  0  0  0  0  0  0  0  0  0  0
   -1.1212   -4.8870   37.5762 C   0  0  0  0  0  0  0  0  0  0  0  0
   -0.6780   -7.6179   32.0552 N   0  0  0  0  0  0  0  0  0  0  0  0
   -0.4799   -7.0900   30.8489 N   0  0  0  0  0  0  0  0  0  0  0  0
   -1.7158   -0.1518   29.3861 H   0  0  0  0  0  0  0  0  0  0  0  0
   -1.4011   -0.3208   27.6426 H   0  0  0  0  0  0  0  0  0  0  0  0
   -0.0894    0.1014   28.7526 H   0  0  0  0  0  0  0  0  0  0  0  0
   -1.5187   -2.5836   28.4989 H   0  0  0  0  0  0  0  0  0  0  0  0
    0.1613   -2.2181   28.1646 H   0  0  0  0  0  0  0  0  0  0  0  0
    0.0734   -1.4478   30.7837 H   0  0  0  0  0  0  0  0  0  0  0  0
   -1.2741   -2.5681   30.8115 H   0  0  0  0  0  0  0  0  0  0  0  0
    0.8669   -3.5969   31.5325 H   0  0  0  0  0  0  0  0  0  0  0  0
    2.1150   -3.5571   28.7809 H   0  0  0  0  0  0  0  0  0  0  0  0
    3.8503   -2.2393   29.5848 H   0  0  0  0  0  0  0  0  0  0  0  0
    2.4860   -0.2687   33.5458 H   0  0  0  0  0  0  0  0  0  0  0  0
    1.4493   -1.5112   34.2438 H   0  0  0  0  0  0  0  0  0  0  0  0
    4.5074   -1.6854   34.0935 H   0  0  0  0  0  0  0  0  0  0  0  0
    3.5443   -1.3824   35.5531 H   0  0  0  0  0  0  0  0  0  0  0  0
    3.4591   -2.9492   34.7154 H   0  0  0  0  0  0  0  0  0  0  0  0
   -0.6188   -4.7759   29.1924 H   0  0  0  0  0  0  0  0  0  0  0  0
    0.9608   -5.4770   29.5457 H   0  0  0  0  0  0  0  0  0  0  0  0
   -1.0193   -4.3840   32.5594 H   0  0  0  0  0  0  0  0  0  0  0  0
   -0.9077   -7.8371   34.6492 H   0  0  0  0  0  0  0  0  0  0  0  0
   -1.5778   -6.2195   34.8920 H   0  0  0  0  0  0  0  0  0  0  0  0
    0.5684   -4.4161   34.0457 H   0  0  0  0  0  0  0  0  0  0  0  0
    1.8316   -4.6504   35.1875 H   0  0  0  0  0  0  0  0  0  0  0  0
    2.7466   -4.8000   32.9129 H   0  0  0  0  0  0  0  0  0  0  0  0
    1.8114   -6.2646   32.5942 H   0  0  0  0  0  0  0  0  0  0  0  0
    3.0212   -6.2600   33.8641 H   0  0  0  0  0  0  0  0  0  0  0  0
    2.0453   -3.9870   37.7128 H   0  0  0  0  0  0  0  0  0  0  0  0
    1.6257   -5.2250   38.9225 H   0  0  0  0  0  0  0  0  0  0  0  0
   -0.0225   -3.8803   39.9464 H   0  0  0  0  0  0  0  0  0  0  0  0
    1.2716   -2.7504   39.5859 H   0  0  0  0  0  0  0  0  0  0  0  0
   -0.8809   -1.8895   38.9983 H   0  0  0  0  0  0  0  0  0  0  0  0
   -1.6027   -2.9658   36.7031 H   0  0  0  0  0  0  0  0  0  0  0  0
   -2.4030   -3.2804   38.2366 H   0  0  0  0  0  0  0  0  0  0  0  0
   -1.7594   -5.3087   36.8001 H   0  0  0  0  0  0  0  0  0  0  0  0
   -1.3407   -5.4012   38.5195 H   0  0  0  0  0  0  0  0  0  0  0  0
  1  2  1  0
  2  3  1  0
  3  4  1  0
  4  5  1  0
  5  6  2  3
  6  7  1  0
  7  8  2  0
  7  9  1  0
  9 10  1  0
 10 11  1  0
  4 12  1  0
 12 13  1  0
 13 14  1  0
 14 15  2  0
 15 16  1  0
 16 17  1  0
 17 18  1  0
 18 19  1  0
 17 20  1  0
 20 21  2  0
 20 22  2  0
 20 23  1  0
 23 24  1  0
 24 25  1  0
 25 26  1  0
 26 27  1  0
 27 28  1  0
 15 29  1  0
 29 30  2  0
 30 13  1  0
 28 23  1  0
  1 31  1  0
  1 32  1  0
  1 33  1  0
  2 34  1  0
  2 35  1  0
  3 36  1  0
  3 37  1  0
  4 38  1  0
  5 39  1  0
  6 40  1  0
 10 41  1  0
 10 42  1  0
 11 43  1  0
 11 44  1  0
 11 45  1  0
 12 46  1  0
 12 47  1  0
 14 48  1  0
 16 49  1  0
 16 50  1  0
 18 51  1  0
 18 52  1  0
 19 53  1  0
 19 54  1  0
 19 55  1  0
 24 56  1  0
 24 57  1  0
 25 58  1  0
 25 59  1  0
 26 60  1  0
 27 61  1  0
 27 62  1  0
 28 63  1  0
 28 64  1  0
M  END
>  <Energy>  (294) 
-78.550356087935342

>  <compound_id>  (294) 
2524

>  <target_id>  (294) 
1

>  <reference_id>  (294) 
168

>  <inspiration_ids>  (294) 
[168, 187]

>  <energy_score>  (294) 
-76.82006903477114

>  <distance_score>  (294) 
1.3196140942498435

>  <path>  (294) 
/opt/xchem-fragalysis-2/maxwin/BulkDock/SCRATCH/505736/C2524-P168/C2524-P168.minimised.mol

>  <scratch_subdir>  (294) 
/opt/xchem-fragalysis-2/maxwin/BulkDock/SCRATCH/505736/C2524-P168

>  <fragmenstein_runtime>  (294) 
25.332127809524536

>  <fragmenstein_outcome>  (294) 
too moved

>  <fragmenstein_mode>  (294) 
expansion

>  <fragmenstein_error>  (294) 


$$$$
C2524-P187
     RDKit          3D

 64 65  0  0  0  0  0  0  0  0999 V2000
   -1.4733   -0.6161   28.7567 C   0  0  0  0  0  0  0  0  0  0  0  0
   -0.8363   -1.9860   28.9126 C   0  0  0  0  0  0  0  0  0  0  0  0
   -0.4978   -2.3088   30.3736 C   0  0  0  0  0  0  0  0  0  0  0  0
    0.5589   -3.4367   30.5758 C   0  0  0  0  0  0  0  0  0  0  0  0
    1.8727   -3.0369   29.9222 C   0  0  0  0  0  0  0  0  0  0  0  0
    2.8639   -2.2669   30.4060 C   0  0  0  0  0  0  0  0  0  0  0  0
    3.0016   -1.5608   31.7003 C   0  0  0  0  0  0  0  0  0  0  0  0
    3.7665   -0.6167   31.8297 O   0  0  0  0  0  0  0  0  0  0  0  0
    2.2371   -2.1054   32.6723 O   0  0  0  0  0  0  0  0  0  0  0  0
    2.3128   -1.4621   33.9550 C   0  0  0  0  0  0  0  0  0  0  0  0
    3.5426   -1.9157   34.7209 C   0  0  0  0  0  0  0  0  0  0  0  0
    0.1007   -4.8386   30.0725 C   0  0  0  0  0  0  0  0  0  0  0  0
   -0.4453   -5.7464   31.0720 N   0  0  0  0  0  0  0  0  0  0  0  0
   -0.9204   -5.4581   32.3124 C   0  0  0  0  0  0  0  0  0  0  0  0
   -0.7804   -6.6497   32.9976 C   0  0  0  0  0  0  0  0  0  0  0  0
   -0.6898   -6.8648   34.4768 C   0  0  0  0  0  0  0  0  0  0  0  0
    0.5562   -6.2856   35.0470 N   0  0  0  0  0  0  0  0  0  0  0  0
    1.2778   -5.1811   34.3931 C   0  0  0  0  0  0  0  0  0  0  0  0
    2.2654   -5.7143   33.3732 C   0  0  0  0  0  0  0  0  0  0  0  0
    0.8382   -6.4504   36.6861 S   0  0  0  0  0  0  0  0  0  0  0  0
    2.2732   -6.5439   36.8390 O   0  0  0  0  0  0  0  0  0  0  0  0
   -0.0607   -7.4180   37.2514 O   0  0  0  0  0  0  0  0  0  0  0  0
    0.3693   -4.9228   37.2272 N   0  0  0  0  0  0  0  0  0  0  0  0
    1.2044   -4.3608   38.3333 C   0  0  0  0  0  0  0  0  0  0  0  0
    0.4392   -3.3388   39.2024 C   0  0  0  0  0  0  0  0  0  0  0  0
   -0.4280   -2.4408   38.4308 N   0  0  0  0  0  0  0  0  0  0  0  0
   -1.3821   -3.2091   37.6124 C   0  0  0  0  0  0  0  0  0  0  0  0
   -1.0771   -4.7128   37.4500 C   0  0  0  0  0  0  0  0  0  0  0  0
   -0.5822   -7.6493   32.0787 N   0  0  0  0  0  0  0  0  0  0  0  0
   -0.4150   -7.0834   30.8853 N   0  0  0  0  0  0  0  0  0  0  0  0
   -2.3027   -0.4917   29.4566 H   0  0  0  0  0  0  0  0  0  0  0  0
   -1.8460   -0.4782   27.7374 H   0  0  0  0  0  0  0  0  0  0  0  0
   -0.7435    0.1742   28.9608 H   0  0  0  0  0  0  0  0  0  0  0  0
   -1.5206   -2.7450   28.5329 H   0  0  0  0  0  0  0  0  0  0  0  0
    0.0572   -2.0131   28.2825 H   0  0  0  0  0  0  0  0  0  0  0  0
   -0.1245   -1.3998   30.8641 H   0  0  0  0  0  0  0  0  0  0  0  0
   -1.4210   -2.5816   30.9000 H   0  0  0  0  0  0  0  0  0  0  0  0
    0.7384   -3.5186   31.6492 H   0  0  0  0  0  0  0  0  0  0  0  0
    2.0001   -3.3778   28.8932 H   0  0  0  0  0  0  0  0  0  0  0  0
    3.7003   -2.0399   29.7468 H   0  0  0  0  0  0  0  0  0  0  0  0
    2.2868   -0.3716   33.8458 H   0  0  0  0  0  0  0  0  0  0  0  0
    1.4119   -1.7515   34.5064 H   0  0  0  0  0  0  0  0  0  0  0  0
    4.4611   -1.5946   34.2202 H   0  0  0  0  0  0  0  0  0  0  0  0
    3.5400   -1.5037   35.7341 H   0  0  0  0  0  0  0  0  0  0  0  0
    3.5833   -3.0070   34.7830 H   0  0  0  0  0  0  0  0  0  0  0  0
   -0.6520   -4.7424   29.2888 H   0  0  0  0  0  0  0  0  0  0  0  0
    0.9583   -5.3772   29.6489 H   0  0  0  0  0  0  0  0  0  0  0  0
   -1.1087   -4.4524   32.6580 H   0  0  0  0  0  0  0  0  0  0  0  0
   -0.6986   -7.9407   34.6756 H   0  0  0  0  0  0  0  0  0  0  0  0
   -1.5661   -6.4239   34.9530 H   0  0  0  0  0  0  0  0  0  0  0  0
    0.6001   -4.4322   33.9862 H   0  0  0  0  0  0  0  0  0  0  0  0
    1.8671   -4.6163   35.1243 H   0  0  0  0  0  0  0  0  0  0  0  0
    3.0376   -6.3047   33.8786 H   0  0  0  0  0  0  0  0  0  0  0  0
    1.8230   -6.3593   32.6163 H   0  0  0  0  0  0  0  0  0  0  0  0
    2.7673   -4.8879   32.8615 H   0  0  0  0  0  0  0  0  0  0  0  0
    2.0672   -3.8662   37.8717 H   0  0  0  0  0  0  0  0  0  0  0  0
    1.5709   -5.1592   38.9883 H   0  0  0  0  0  0  0  0  0  0  0  0
   -0.1672   -3.8715   39.9464 H   0  0  0  0  0  0  0  0  0  0  0  0
    1.1636   -2.7414   39.7672 H   0  0  0  0  0  0  0  0  0  0  0  0
   -0.9360   -1.8243   39.0634 H   0  0  0  0  0  0  0  0  0  0  0  0
   -1.4053   -2.7419   36.6209 H   0  0  0  0  0  0  0  0  0  0  0  0
   -2.3885   -3.1010   38.0334 H   0  0  0  0  0  0  0  0  0  0  0  0
   -1.6566   -5.0843   36.6048 H   0  0  0  0  0  0  0  0  0  0  0  0
   -1.3847   -5.2550   38.3512 H   0  0  0  0  0  0  0  0  0  0  0  0
  1  2  1  0
  2  3  1  0
  3  4  1  0
  4  5  1  0
  5  6  2  3
  6  7  1  0
  7  8  2  0
  7  9  1  0
  9 10  1  0
 10 11  1  0
  4 12  1  0
 12 13  1  0
 13 14  1  0
 14 15  2  0
 15 16  1  0
 16 17  1  0
 17 18  1  0
 18 19  1  0
 17 20  1  0
 20 21  2  0
 20 22  2  0
 20 23  1  0
 23 24  1  0
 24 25  1  0
 25 26  1  0
 26 27  1  0
 27 28  1  0
 15 29  1  0
 29 30  2  0
 30 13  1  0
 28 23  1  0
  1 31  1  0
  1 32  1  0
  1 33  1  0
  2 34  1  0
  2 35  1  0
  3 36  1  0
  3 37  1  0
  4 38  1  0
  5 39  1  0
  6 40  1  0
 10 41  1  0
 10 42  1  0
 11 43  1  0
 11 44  1  0
 11 45  1  0
 12 46  1  0
 12 47  1  0
 14 48  1  0
 16 49  1  0
 16 50  1  0
 18 51  1  0
 18 52  1  0
 19 53  1  0
 19 54  1  0
 19 55  1  0
 24 56  1  0
 24 57  1  0
 25 58  1  0
 25 59  1  0
 26 60  1  0
 27 61  1  0
 27 62  1  0
 28 63  1  0
 28 64  1  0
M  END
>  <Energy>  (295) 
-78.612535387291302

>  <compound_id>  (295) 
2524

>  <target_id>  (295) 
1

>  <reference_id>  (295) 
187

>  <inspiration_ids>  (295) 
[168, 187]

>  <energy_score>  (295) 
-76.88224833412774

>  <distance_score>  (295) 
1.2711525844368425

>  <path>  (295) 
/opt/xchem-fragalysis-2/maxwin/BulkDock/SCRATCH/505736/C2524-P187/C2524-P187.minimised.mol

>  <scratch_subdir>  (295) 
/opt/xchem-fragalysis-2/maxwin/BulkDock/SCRATCH/505736/C2524-P187

>  <fragmenstein_runtime>  (295) 
27.222601413726807

>  <fragmenstein_outcome>  (295) 
too moved

>  <fragmenstein_mode>  (295) 
expansion

>  <fragmenstein_error>  (295) 


$$$$
C2528-P168
     RDKit          3D

 56 59  0  0  0  0  0  0  0  0999 V2000
   -0.5317   -5.0639   29.6213 O   0  0  0  0  0  0  0  0  0  0  0  0
   -0.4129   -6.2222   29.5042 C   0  0  0  0  0  0  0  0  0  0  0  0
   -0.6109   -7.1007   28.2011 N   0  0  0  0  0  0  0  0  0  0  0  0
   -0.8920   -6.6845   26.7710 C   0  0  0  0  0  0  0  0  0  0  0  0
   -1.5550   -7.1048   24.8089 C   0  0  0  0  0  0  0  0  0  0  0  0
    0.0544   -7.2260   23.3600 C   0  0  0  0  0  0  0  0  0  0  0  0
    1.7259   -6.2297   24.1450 C   0  0  0  0  0  0  0  0  0  0  0  0
    1.9884   -5.4387   25.8540 N   0  0  0  0  0  0  0  0  0  0  0  0
    0.8332   -5.7365   27.0711 C   0  0  0  0  0  0  0  0  0  0  0  0
   -0.1068   -7.2196   30.5356 N   0  0  0  0  0  0  0  0  0  0  0  0
   -1.3498   -7.7480   31.1259 C   0  0  0  0  0  0  0  0  0  0  0  0
   -1.5718   -8.3442   32.4547 C   0  0  0  0  0  0  0  0  0  0  0  0
   -0.4732   -7.6427   33.0257 C   0  0  0  0  0  0  0  0  0  0  0  0
   -0.2353   -7.5308   34.3789 C   0  0  0  0  0  0  0  0  0  0  0  0
    0.8004   -6.7269   34.7677 C   0  0  0  0  0  0  0  0  0  0  0  0
    1.4597   -5.9347   33.8272 C   0  0  0  0  0  0  0  0  0  0  0  0
    2.4455   -4.9938   34.2294 N   0  0  0  0  0  0  0  0  0  0  0  0
    2.6584   -4.4125   35.7865 S   0  0  0  0  0  0  0  0  0  0  0  0
    3.8811   -3.6453   35.7173 O   0  0  0  0  0  0  0  0  0  0  0  0
    2.5094   -5.4506   36.7768 O   0  0  0  0  0  0  0  0  0  0  0  0
    1.3972   -3.3000   35.9686 N   0  0  0  0  0  0  0  0  0  0  0  0
    1.6178   -2.3515   37.1214 C   0  0  0  0  0  0  0  0  0  0  0  0
    0.6533   -2.6183   38.2909 C   0  0  0  0  0  0  0  0  0  0  0  0
   -0.7705   -2.4849   37.9409 N   0  0  0  0  0  0  0  0  0  0  0  0
   -1.0040   -2.8067   36.5237 C   0  0  0  0  0  0  0  0  0  0  0  0
   -0.0064   -3.8298   35.9495 C   0  0  0  0  0  0  0  0  0  0  0  0
    1.2162   -6.1268   32.4388 C   0  0  0  0  0  0  0  0  0  0  0  0
    0.2523   -7.0474   32.0105 C   0  0  0  0  0  0  0  0  0  0  0  0
   -0.3544   -8.0592   28.4030 H   0  0  0  0  0  0  0  0  0  0  0  0
   -1.6299   -5.9225   26.9950 H   0  0  0  0  0  0  0  0  0  0  0  0
   -2.1196   -6.2582   24.3685 H   0  0  0  0  0  0  0  0  0  0  0  0
   -2.2445   -7.6901   25.4321 H   0  0  0  0  0  0  0  0  0  0  0  0
    0.0897   -6.3949   22.6108 H   0  0  0  0  0  0  0  0  0  0  0  0
    0.2095   -7.8597   22.4643 H   0  0  0  0  0  0  0  0  0  0  0  0
    2.7621   -6.7814   24.3864 H   0  0  0  0  0  0  0  0  0  0  0  0
    1.2996   -5.2943   23.4178 H   0  0  0  0  0  0  0  0  0  0  0  0
    2.8669   -5.8703   26.1646 H   0  0  0  0  0  0  0  0  0  0  0  0
    1.4404   -6.2692   27.8262 H   0  0  0  0  0  0  0  0  0  0  0  0
    0.5944   -4.7663   27.5322 H   0  0  0  0  0  0  0  0  0  0  0  0
   -1.2585   -8.6740   30.5480 H   0  0  0  0  0  0  0  0  0  0  0  0
   -2.2253   -7.2362   30.7646 H   0  0  0  0  0  0  0  0  0  0  0  0
   -1.4474   -9.4007   32.3736 H   0  0  0  0  0  0  0  0  0  0  0  0
   -2.5276   -8.1013   32.8908 H   0  0  0  0  0  0  0  0  0  0  0  0
   -0.8322   -8.0633   35.1135 H   0  0  0  0  0  0  0  0  0  0  0  0
    1.0073   -6.7013   35.8294 H   0  0  0  0  0  0  0  0  0  0  0  0
    2.7407   -4.2957   33.5491 H   0  0  0  0  0  0  0  0  0  0  0  0
    2.6456   -2.4017   37.4955 H   0  0  0  0  0  0  0  0  0  0  0  0
    1.4802   -1.3322   36.7397 H   0  0  0  0  0  0  0  0  0  0  0  0
    0.8193   -3.6325   38.6738 H   0  0  0  0  0  0  0  0  0  0  0  0
    0.8776   -1.9331   39.1160 H   0  0  0  0  0  0  0  0  0  0  0  0
   -1.0830   -1.5304   38.1170 H   0  0  0  0  0  0  0  0  0  0  0  0
   -2.0240   -3.1891   36.4217 H   0  0  0  0  0  0  0  0  0  0  0  0
   -0.9470   -1.8821   35.9354 H   0  0  0  0  0  0  0  0  0  0  0  0
   -0.2899   -4.0302   34.9122 H   0  0  0  0  0  0  0  0  0  0  0  0
   -0.0794   -4.7526   36.5331 H   0  0  0  0  0  0  0  0  0  0  0  0
    1.7599   -5.5391   31.7045 H   0  0  0  0  0  0  0  0  0  0  0  0
  1  2  2  0
  2  3  1  0
  3  4  1  0
  4  5  1  0
  5  6  1  0
  6  7  1  0
  7  8  1  0
  8  9  1  0
  2 10  1  0
 10 11  1  0
 11 12  1  0
 12 13  1  0
 13 14  2  0
 14 15  1  0
 15 16  2  0
 16 17  1  0
 17 18  1  0
 18 19  2  0
 18 20  2  0
 18 21  1  0
 21 22  1  0
 22 23  1  0
 23 24  1  0
 24 25  1  0
 25 26  1  0
 16 27  1  0
 27 28  2  0
  9  4  1  0
 28 10  1  0
 28 13  1  0
 26 21  1  0
  3 29  1  0
  4 30  1  0
  5 31  1  0
  5 32  1  0
  6 33  1  0
  6 34  1  0
  7 35  1  0
  7 36  1  0
  8 37  1  0
  9 38  1  0
  9 39  1  0
 11 40  1  0
 11 41  1  0
 12 42  1  0
 12 43  1  0
 14 44  1  0
 15 45  1  0
 17 46  1  0
 22 47  1  0
 22 48  1  0
 23 49  1  0
 23 50  1  0
 24 51  1  0
 25 52  1  0
 25 53  1  0
 26 54  1  0
 26 55  1  0
 27 56  1  0
M  END
>  <Energy>  (296) 
517.02021283633724

>  <compound_id>  (296) 
2528

>  <target_id>  (296) 
1

>  <reference_id>  (296) 
168

>  <inspiration_ids>  (296) 
[168, 194]

>  <energy_score>  (296) 
565.6417284634566

>  <distance_score>  (296) 
1.890777220001493

>  <path>  (296) 
/opt/xchem-fragalysis-2/maxwin/BulkDock/SCRATCH/505736/C2528-P168/C2528-P168.minimised.mol

>  <scratch_subdir>  (296) 
/opt/xchem-fragalysis-2/maxwin/BulkDock/SCRATCH/505736/C2528-P168

>  <fragmenstein_runtime>  (296) 
13.042131900787354

>  <fragmenstein_outcome>  (296) 
too moved

>  <fragmenstein_mode>  (296) 
expansion

>  <fragmenstein_error>  (296) 


$$$$
C2528-P194
     RDKit          3D

 56 59  0  0  0  0  0  0  0  0999 V2000
    2.1355   -3.4900   31.1463 O   0  0  0  0  0  0  0  0  0  0  0  0
    2.0268   -4.4626   30.5568 C   0  0  0  0  0  0  0  0  0  0  0  0
    2.5986   -4.8653   29.1814 N   0  0  0  0  0  0  0  0  0  0  0  0
    3.5076   -4.1617   28.3005 C   0  0  0  0  0  0  0  0  0  0  0  0
    4.9607   -4.4323   28.6995 C   0  0  0  0  0  0  0  0  0  0  0  0
    5.9168   -3.6645   27.7889 C   0  0  0  0  0  0  0  0  0  0  0  0
    5.5629   -2.1789   27.7254 C   0  0  0  0  0  0  0  0  0  0  0  0
    4.1700   -1.9764   27.3165 N   0  0  0  0  0  0  0  0  0  0  0  0
    3.2518   -2.6422   28.2523 C   0  0  0  0  0  0  0  0  0  0  0  0
    1.3487   -5.7772   30.9391 N   0  0  0  0  0  0  0  0  0  0  0  0
   -0.1562   -5.7840   30.5126 C   0  0  0  0  0  0  0  0  0  0  0  0
   -0.8094   -7.1273   30.8225 C   0  0  0  0  0  0  0  0  0  0  0  0
   -0.3747   -7.0296   32.2023 C   0  0  0  0  0  0  0  0  0  0  0  0
   -0.9322   -7.5405   33.3510 C   0  0  0  0  0  0  0  0  0  0  0  0
   -0.3063   -7.2437   34.5516 C   0  0  0  0  0  0  0  0  0  0  0  0
    0.8239   -6.4158   34.5801 C   0  0  0  0  0  0  0  0  0  0  0  0
    1.6472   -6.2931   35.7197 N   0  0  0  0  0  0  0  0  0  0  0  0
    1.0650   -6.1851   37.2709 S   0  0  0  0  0  0  0  0  0  0  0  0
    2.2490   -6.0585   38.0827 O   0  0  0  0  0  0  0  0  0  0  0  0
    0.0782   -7.2069   37.5002 O   0  0  0  0  0  0  0  0  0  0  0  0
    0.3243   -4.6871   37.1619 N   0  0  0  0  0  0  0  0  0  0  0  0
    1.1510   -3.4810   37.4248 C   0  0  0  0  0  0  0  0  0  0  0  0
    0.7101   -2.7852   38.7232 C   0  0  0  0  0  0  0  0  0  0  0  0
   -0.6862   -2.3173   38.7049 N   0  0  0  0  0  0  0  0  0  0  0  0
   -1.5312   -3.1568   37.8374 C   0  0  0  0  0  0  0  0  0  0  0  0
   -1.0554   -4.6133   37.7123 C   0  0  0  0  0  0  0  0  0  0  0  0
    1.3503   -5.8950   33.3978 C   0  0  0  0  0  0  0  0  0  0  0  0
    0.7340   -6.1972   32.2018 C   0  0  0  0  0  0  0  0  0  0  0  0
    2.3767   -5.8298   28.9921 H   0  0  0  0  0  0  0  0  0  0  0  0
    3.3310   -4.5817   27.3016 H   0  0  0  0  0  0  0  0  0  0  0  0
    5.1768   -5.5062   28.6459 H   0  0  0  0  0  0  0  0  0  0  0  0
    5.1269   -4.1320   29.7424 H   0  0  0  0  0  0  0  0  0  0  0  0
    5.8794   -4.0935   26.7793 H   0  0  0  0  0  0  0  0  0  0  0  0
    6.9449   -3.7847   28.1485 H   0  0  0  0  0  0  0  0  0  0  0  0
    5.7427   -1.7049   28.6982 H   0  0  0  0  0  0  0  0  0  0  0  0
    6.2192   -1.6840   27.0014 H   0  0  0  0  0  0  0  0  0  0  0  0
    3.9681   -0.9748   27.3258 H   0  0  0  0  0  0  0  0  0  0  0  0
    3.3570   -2.1928   29.2472 H   0  0  0  0  0  0  0  0  0  0  0  0
    2.2201   -2.4555   27.9360 H   0  0  0  0  0  0  0  0  0  0  0  0
   -0.1505   -5.6120   29.4343 H   0  0  0  0  0  0  0  0  0  0  0  0
   -0.6729   -4.8912   30.9200 H   0  0  0  0  0  0  0  0  0  0  0  0
   -0.3380   -7.9626   30.2965 H   0  0  0  0  0  0  0  0  0  0  0  0
   -1.8854   -7.1466   30.7051 H   0  0  0  0  0  0  0  0  0  0  0  0
   -1.8012   -8.1873   33.3245 H   0  0  0  0  0  0  0  0  0  0  0  0
   -0.6915   -7.7254   35.4444 H   0  0  0  0  0  0  0  0  0  0  0  0
    2.4543   -5.6799   35.6373 H   0  0  0  0  0  0  0  0  0  0  0  0
    2.2186   -3.7149   37.4731 H   0  0  0  0  0  0  0  0  0  0  0  0
    1.0331   -2.8007   36.5721 H   0  0  0  0  0  0  0  0  0  0  0  0
    0.8307   -3.4764   39.5663 H   0  0  0  0  0  0  0  0  0  0  0  0
    1.3641   -1.9293   38.9234 H   0  0  0  0  0  0  0  0  0  0  0  0
   -0.7285   -1.3548   38.3723 H   0  0  0  0  0  0  0  0  0  0  0  0
   -2.5553   -3.1307   38.2229 H   0  0  0  0  0  0  0  0  0  0  0  0
   -1.5570   -2.7076   36.8362 H   0  0  0  0  0  0  0  0  0  0  0  0
   -1.7121   -5.1374   37.0138 H   0  0  0  0  0  0  0  0  0  0  0  0
   -1.1030   -5.0995   38.6934 H   0  0  0  0  0  0  0  0  0  0  0  0
    2.2548   -5.2941   33.4033 H   0  0  0  0  0  0  0  0  0  0  0  0
  1  2  2  0
  2  3  1  0
  3  4  1  0
  4  5  1  0
  5  6  1  0
  6  7  1  0
  7  8  1  0
  8  9  1  0
  2 10  1  0
 10 11  1  0
 11 12  1  0
 12 13  1  0
 13 14  2  0
 14 15  1  0
 15 16  2  0
 16 17  1  0
 17 18  1  0
 18 19  2  0
 18 20  2  0
 18 21  1  0
 21 22  1  0
 22 23  1  0
 23 24  1  0
 24 25  1  0
 25 26  1  0
 16 27  1  0
 27 28  2  0
  9  4  1  0
 28 10  1  0
 28 13  1  0
 26 21  1  0
  3 29  1  0
  4 30  1  0
  5 31  1  0
  5 32  1  0
  6 33  1  0
  6 34  1  0
  7 35  1  0
  7 36  1  0
  8 37  1  0
  9 38  1  0
  9 39  1  0
 11 40  1  0
 11 41  1  0
 12 42  1  0
 12 43  1  0
 14 44  1  0
 15 45  1  0
 17 46  1  0
 22 47  1  0
 22 48  1  0
 23 49  1  0
 23 50  1  0
 24 51  1  0
 25 52  1  0
 25 53  1  0
 26 54  1  0
 26 55  1  0
 27 56  1  0
M  END
>  <Energy>  (297) 
-32.781215718700551

>  <compound_id>  (297) 
2528

>  <target_id>  (297) 
1

>  <reference_id>  (297) 
194

>  <inspiration_ids>  (297) 
[168, 194]

>  <energy_score>  (297) 
15.699282634380182

>  <distance_score>  (297) 
1.4204814397575998

>  <path>  (297) 
/opt/xchem-fragalysis-2/maxwin/BulkDock/SCRATCH/505736/C2528-P194/C2528-P194.minimised.mol

>  <scratch_subdir>  (297) 
/opt/xchem-fragalysis-2/maxwin/BulkDock/SCRATCH/505736/C2528-P194

>  <fragmenstein_runtime>  (297) 
14.065772771835327

>  <fragmenstein_outcome>  (297) 
too moved

>  <fragmenstein_mode>  (297) 
expansion

>  <fragmenstein_error>  (297) 


$$$$
C2529-P168
     RDKit          3D

 57 60  0  0  0  0  0  0  0  0999 V2000
    2.8521   -4.8977   32.0917 C   0  0  0  0  0  0  0  0  0  0  0  0
    1.9937   -6.0903   31.9278 N   0  0  0  0  0  0  0  0  0  0  0  0
    1.1099   -6.2851   32.9953 C   0  0  0  0  0  0  0  0  0  0  0  0
    1.4879   -5.9296   34.3265 C   0  0  0  0  0  0  0  0  0  0  0  0
    0.5191   -5.5182   35.2349 C   0  0  0  0  0  0  0  0  0  0  0  0
    0.7332   -5.2188   36.5728 N   0  0  0  0  0  0  0  0  0  0  0  0
    1.5893   -4.0506   36.8639 C   0  0  0  0  0  0  0  0  0  0  0  0
    1.1823   -3.3381   38.1795 C   0  0  0  0  0  0  0  0  0  0  0  0
   -0.2280   -2.9147   38.2004 N   0  0  0  0  0  0  0  0  0  0  0  0
   -1.1214   -4.0257   37.8176 C   0  0  0  0  0  0  0  0  0  0  0  0
   -0.4352   -5.3706   37.4782 C   0  0  0  0  0  0  0  0  0  0  0  0
   -0.6793   -5.2660   34.6044 C   0  0  0  0  0  0  0  0  0  0  0  0
   -0.7366   -3.7975   34.0361 C   0  0  0  0  0  0  0  0  0  0  0  0
   -1.6369   -3.6120   32.8631 N   0  0  0  0  0  0  0  0  0  0  0  0
   -1.1609   -2.7992   31.8155 C   0  0  0  0  0  0  0  0  0  0  0  0
   -0.1458   -3.2929   30.9749 C   0  0  0  0  0  0  0  0  0  0  0  0
    0.3713   -2.5630   29.8994 C   0  0  0  0  0  0  0  0  0  0  0  0
   -0.1607   -1.3145   29.6548 C   0  0  0  0  0  0  0  0  0  0  0  0
   -1.1660   -0.8167   30.4606 C   0  0  0  0  0  0  0  0  0  0  0  0
   -1.6678   -1.5220   31.5492 C   0  0  0  0  0  0  0  0  0  0  0  0
   -1.6334    0.3956   30.0269 O   0  0  0  0  0  0  0  0  0  0  0  0
   -1.0695    0.5347   28.6913 C   0  0  0  0  0  0  0  0  0  0  0  0
    0.1832   -0.3199   28.6168 C   0  0  0  0  0  0  0  0  0  0  0  0
   -1.0874   -6.2866   33.7626 C   0  0  0  0  0  0  0  0  0  0  0  0
   -0.1823   -6.7553   32.8381 C   0  0  0  0  0  0  0  0  0  0  0  0
   -0.8808   -7.6972   31.5331 S   0  0  0  0  0  0  0  0  0  0  0  0
   -0.0682   -7.5024   30.0104 C   0  0  0  0  0  0  0  0  0  0  0  0
   -0.8722   -9.0813   31.8913 O   0  0  0  0  0  0  0  0  0  0  0  0
   -2.1740   -7.1504   31.2518 O   0  0  0  0  0  0  0  0  0  0  0  0
    3.6676   -5.0862   32.7973 H   0  0  0  0  0  0  0  0  0  0  0  0
    2.2867   -4.0199   32.4206 H   0  0  0  0  0  0  0  0  0  0  0  0
    3.2992   -4.6461   31.1242 H   0  0  0  0  0  0  0  0  0  0  0  0
    1.5158   -6.0094   31.0416 H   0  0  0  0  0  0  0  0  0  0  0  0
    2.5322   -5.8897   34.6190 H   0  0  0  0  0  0  0  0  0  0  0  0
    1.5360   -3.3188   36.0471 H   0  0  0  0  0  0  0  0  0  0  0  0
    2.6308   -4.3833   36.9402 H   0  0  0  0  0  0  0  0  0  0  0  0
    1.8132   -2.4523   38.3119 H   0  0  0  0  0  0  0  0  0  0  0  0
    1.3797   -3.9969   39.0345 H   0  0  0  0  0  0  0  0  0  0  0  0
   -0.4668   -2.5962   39.1393 H   0  0  0  0  0  0  0  0  0  0  0  0
   -1.7141   -3.6910   36.9612 H   0  0  0  0  0  0  0  0  0  0  0  0
   -1.8349   -4.1979   38.6317 H   0  0  0  0  0  0  0  0  0  0  0  0
   -1.1688   -6.0840   37.0852 H   0  0  0  0  0  0  0  0  0  0  0  0
   -0.0671   -5.8202   38.4099 H   0  0  0  0  0  0  0  0  0  0  0  0
   -1.0755   -3.1377   34.8428 H   0  0  0  0  0  0  0  0  0  0  0  0
    0.2777   -3.4714   33.7716 H   0  0  0  0  0  0  0  0  0  0  0  0
   -2.5253   -3.2848   33.2484 H   0  0  0  0  0  0  0  0  0  0  0  0
    0.2166   -4.2933   31.1478 H   0  0  0  0  0  0  0  0  0  0  0  0
    1.1507   -2.9709   29.2667 H   0  0  0  0  0  0  0  0  0  0  0  0
   -2.4614   -1.0959   32.1499 H   0  0  0  0  0  0  0  0  0  0  0  0
   -1.7983    0.1862   27.9538 H   0  0  0  0  0  0  0  0  0  0  0  0
   -0.8600    1.5909   28.4953 H   0  0  0  0  0  0  0  0  0  0  0  0
    1.0715    0.2452   28.9165 H   0  0  0  0  0  0  0  0  0  0  0  0
    0.3300   -0.7483   27.6270 H   0  0  0  0  0  0  0  0  0  0  0  0
   -2.1278   -6.5171   33.6462 H   0  0  0  0  0  0  0  0  0  0  0  0
   -0.0035   -6.4450   29.7509 H   0  0  0  0  0  0  0  0  0  0  0  0
   -0.6549   -8.0017   29.2368 H   0  0  0  0  0  0  0  0  0  0  0  0
    0.8989   -7.9726   30.0289 H   0  0  0  0  0  0  0  0  0  0  0  0
  1  2  1  0
  2  3  1  0
  3  4  2  0
  4  5  1  0
  5  6  1  0
  6  7  1  0
  7  8  1  0
  8  9  1  0
  9 10  1  0
 10 11  1  0
  5 12  2  0
 12 13  1  0
 13 14  1  0
 14 15  1  0
 15 16  2  0
 16 17  1  0
 17 18  2  0
 18 19  1  0
 19 20  2  0
 19 21  1  0
 21 22  1  0
 22 23  1  0
 12 24  1  0
 24 25  2  0
 25 26  1  0
 26 27  1  0
 26 28  2  0
 26 29  2  0
 25  3  1  0
 11  6  1  0
 20 15  1  0
 23 18  1  0
  1 30  1  0
  1 31  1  0
  1 32  1  0
  2 33  1  0
  4 34  1  0
  7 35  1  0
  7 36  1  0
  8 37  1  0
  8 38  1  0
  9 39  1  0
 10 40  1  0
 10 41  1  0
 11 42  1  0
 11 43  1  0
 13 44  1  0
 13 45  1  0
 14 46  1  0
 16 47  1  0
 17 48  1  0
 20 49  1  0
 22 50  1  0
 22 51  1  0
 23 52  1  0
 23 53  1  0
 24 54  1  0
 27 55  1  0
 27 56  1  0
 27 57  1  0
M  END
>  <Energy>  (298) 
249.9731165091583

>  <compound_id>  (298) 
2529

>  <target_id>  (298) 
1

>  <reference_id>  (298) 
168

>  <inspiration_ids>  (298) 
[168, 195]

>  <energy_score>  (298) 
27.323835870918117

>  <distance_score>  (298) 
1.801588637113238

>  <path>  (298) 
/opt/xchem-fragalysis-2/maxwin/BulkDock/SCRATCH/505736/C2529-P168/C2529-P168.minimised.mol

>  <scratch_subdir>  (298) 
/opt/xchem-fragalysis-2/maxwin/BulkDock/SCRATCH/505736/C2529-P168

>  <fragmenstein_runtime>  (298) 
19.749585390090942

>  <fragmenstein_outcome>  (298) 
too moved

>  <fragmenstein_mode>  (298) 
expansion

>  <fragmenstein_error>  (298) 


$$$$
C2529-P195
     RDKit          3D

 57 60  0  0  0  0  0  0  0  0999 V2000
    2.6954   -5.9205   33.1734 C   0  0  0  0  0  0  0  0  0  0  0  0
    1.8961   -7.1373   33.4091 N   0  0  0  0  0  0  0  0  0  0  0  0
    0.6662   -6.7965   34.0300 C   0  0  0  0  0  0  0  0  0  0  0  0
    0.7699   -6.2899   35.3423 C   0  0  0  0  0  0  0  0  0  0  0  0
    0.0724   -5.1517   35.7031 C   0  0  0  0  0  0  0  0  0  0  0  0
    0.1475   -4.5291   36.9338 N   0  0  0  0  0  0  0  0  0  0  0  0
    1.3621   -4.5198   37.7574 C   0  0  0  0  0  0  0  0  0  0  0  0
    1.1050   -3.8074   39.1205 C   0  0  0  0  0  0  0  0  0  0  0  0
    0.0611   -2.7708   39.0876 N   0  0  0  0  0  0  0  0  0  0  0  0
   -1.2174   -3.3387   38.6166 C   0  0  0  0  0  0  0  0  0  0  0  0
   -1.0977   -4.5894   37.7160 C   0  0  0  0  0  0  0  0  0  0  0  0
   -0.6684   -4.5488   34.6755 C   0  0  0  0  0  0  0  0  0  0  0  0
   -0.8545   -3.0479   34.6860 C   0  0  0  0  0  0  0  0  0  0  0  0
   -1.6127   -2.4860   33.5603 N   0  0  0  0  0  0  0  0  0  0  0  0
   -1.1394   -2.0735   32.3275 C   0  0  0  0  0  0  0  0  0  0  0  0
    0.1331   -2.4059   31.8228 C   0  0  0  0  0  0  0  0  0  0  0  0
    0.5740   -1.9615   30.5609 C   0  0  0  0  0  0  0  0  0  0  0  0
   -0.2435   -1.1131   29.8357 C   0  0  0  0  0  0  0  0  0  0  0  0
   -1.4612   -0.7298   30.3507 C   0  0  0  0  0  0  0  0  0  0  0  0
   -1.9288   -1.1983   31.5645 C   0  0  0  0  0  0  0  0  0  0  0  0
   -2.1363    0.1457   29.5475 O   0  0  0  0  0  0  0  0  0  0  0  0
   -1.4672    0.0219   28.2648 C   0  0  0  0  0  0  0  0  0  0  0  0
   -0.0364   -0.4353   28.5345 C   0  0  0  0  0  0  0  0  0  0  0  0
   -1.0419   -5.2855   33.5527 C   0  0  0  0  0  0  0  0  0  0  0  0
   -0.4216   -6.4660   33.2424 C   0  0  0  0  0  0  0  0  0  0  0  0
   -0.6791   -7.1204   31.6307 S   0  0  0  0  0  0  0  0  0  0  0  0
   -0.3738   -5.7364   30.6007 C   0  0  0  0  0  0  0  0  0  0  0  0
    0.4153   -7.9926   31.2901 O   0  0  0  0  0  0  0  0  0  0  0  0
   -2.0414   -7.5670   31.4710 O   0  0  0  0  0  0  0  0  0  0  0  0
    3.6988   -6.0611   33.5836 H   0  0  0  0  0  0  0  0  0  0  0  0
    2.2929   -5.0060   33.6238 H   0  0  0  0  0  0  0  0  0  0  0  0
    2.7703   -5.7336   32.0981 H   0  0  0  0  0  0  0  0  0  0  0  0
    1.6910   -7.6227   32.5218 H   0  0  0  0  0  0  0  0  0  0  0  0
    1.5402   -6.6895   35.9948 H   0  0  0  0  0  0  0  0  0  0  0  0
    2.1462   -3.9792   37.2143 H   0  0  0  0  0  0  0  0  0  0  0  0
    1.7194   -5.5360   37.9582 H   0  0  0  0  0  0  0  0  0  0  0  0
    2.0450   -3.3652   39.4694 H   0  0  0  0  0  0  0  0  0  0  0  0
    0.8268   -4.5621   39.8679 H   0  0  0  0  0  0  0  0  0  0  0  0
   -0.0652   -2.3673   40.0137 H   0  0  0  0  0  0  0  0  0  0  0  0
   -1.7400   -2.5475   38.0675 H   0  0  0  0  0  0  0  0  0  0  0  0
   -1.8483   -3.5892   39.4777 H   0  0  0  0  0  0  0  0  0  0  0  0
   -1.9801   -4.6380   37.0737 H   0  0  0  0  0  0  0  0  0  0  0  0
   -1.0890   -5.4965   38.3339 H   0  0  0  0  0  0  0  0  0  0  0  0
   -1.4007   -2.7623   35.5905 H   0  0  0  0  0  0  0  0  0  0  0  0
    0.1271   -2.5606   34.7379 H   0  0  0  0  0  0  0  0  0  0  0  0
   -2.6177   -2.5959   33.6705 H   0  0  0  0  0  0  0  0  0  0  0  0
    0.7996   -3.0337   32.4077 H   0  0  0  0  0  0  0  0  0  0  0  0
    1.5535   -2.2419   30.1880 H   0  0  0  0  0  0  0  0  0  0  0  0
   -2.8959   -0.8677   31.9248 H   0  0  0  0  0  0  0  0  0  0  0  0
   -2.0178   -0.7151   27.6667 H   0  0  0  0  0  0  0  0  0  0  0  0
   -1.4990    0.9834   27.7427 H   0  0  0  0  0  0  0  0  0  0  0  0
    0.6357    0.4198   28.6592 H   0  0  0  0  0  0  0  0  0  0  0  0
    0.3408   -1.0976   27.7550 H   0  0  0  0  0  0  0  0  0  0  0  0
   -1.6898   -4.8163   32.8325 H   0  0  0  0  0  0  0  0  0  0  0  0
   -1.0554   -4.9157   30.8059 H   0  0  0  0  0  0  0  0  0  0  0  0
   -0.4780   -6.0585   29.5724 H   0  0  0  0  0  0  0  0  0  0  0  0
    0.6547   -5.4001   30.7532 H   0  0  0  0  0  0  0  0  0  0  0  0
  1  2  1  0
  2  3  1  0
  3  4  2  0
  4  5  1  0
  5  6  1  0
  6  7  1  0
  7  8  1  0
  8  9  1  0
  9 10  1  0
 10 11  1  0
  5 12  2  0
 12 13  1  0
 13 14  1  0
 14 15  1  0
 15 16  2  0
 16 17  1  0
 17 18  2  0
 18 19  1  0
 19 20  2  0
 19 21  1  0
 21 22  1  0
 22 23  1  0
 12 24  1  0
 24 25  2  0
 25 26  1  0
 26 27  1  0
 26 28  2  0
 26 29  2  0
 25  3  1  0
 11  6  1  0
 20 15  1  0
 23 18  1  0
  1 30  1  0
  1 31  1  0
  1 32  1  0
  2 33  1  0
  4 34  1  0
  7 35  1  0
  7 36  1  0
  8 37  1  0
  8 38  1  0
  9 39  1  0
 10 40  1  0
 10 41  1  0
 11 42  1  0
 11 43  1  0
 13 44  1  0
 13 45  1  0
 14 46  1  0
 16 47  1  0
 17 48  1  0
 20 49  1  0
 22 50  1  0
 22 51  1  0
 23 52  1  0
 23 53  1  0
 24 54  1  0
 27 55  1  0
 27 56  1  0
 27 57  1  0
M  END
>  <Energy>  (299) 
205.14586130507158

>  <compound_id>  (299) 
2529

>  <target_id>  (299) 
1

>  <reference_id>  (299) 
195

>  <inspiration_ids>  (299) 
[168, 195]

>  <energy_score>  (299) 
-17.503419333161787

>  <distance_score>  (299) 
2.0957247759551274

>  <path>  (299) 
/opt/xchem-fragalysis-2/maxwin/BulkDock/SCRATCH/505736/C2529-P195/C2529-P195.minimised.mol

>  <scratch_subdir>  (299) 
/opt/xchem-fragalysis-2/maxwin/BulkDock/SCRATCH/505736/C2529-P195

>  <fragmenstein_runtime>  (299) 
10.736177206039429

>  <fragmenstein_outcome>  (299) 
too moved

>  <fragmenstein_mode>  (299) 
expansion

>  <fragmenstein_error>  (299) 


$$$$
C1160-P168
     RDKit          3D

 47 50  0  0  0  0  0  0  0  0999 V2000
    3.6266   -4.5725   29.4241 C   0  0  0  0  0  0  0  0  0  0  0  0
    2.4000   -4.6545   30.2849 C   0  0  0  0  0  0  0  0  0  0  0  0
    2.4334   -5.1022   31.5139 N   0  0  0  0  0  0  0  0  0  0  0  0
    1.1846   -5.3879   32.1622 C   0  0  0  0  0  0  0  0  0  0  0  0
    0.8809   -5.3361   33.6040 C   0  0  0  0  0  0  0  0  0  0  0  0
    1.8942   -4.9169   34.5463 N   0  0  0  0  0  0  0  0  0  0  0  0
    2.1259   -5.7299   36.0286 S   0  0  0  0  0  0  0  0  0  0  0  0
    3.5304   -5.5938   36.3283 O   0  0  0  0  0  0  0  0  0  0  0  0
    1.5320   -7.0491   35.9888 O   0  0  0  0  0  0  0  0  0  0  0  0
    1.2995   -4.7365   37.0965 N   0  0  0  0  0  0  0  0  0  0  0  0
    1.6892   -3.3080   37.1776 C   0  0  0  0  0  0  0  0  0  0  0  0
    1.1370   -2.6062   38.4401 C   0  0  0  0  0  0  0  0  0  0  0  0
   -0.2384   -2.9913   38.7534 N   0  0  0  0  0  0  0  0  0  0  0  0
   -0.3189   -4.4453   38.9840 C   0  0  0  0  0  0  0  0  0  0  0  0
    0.8443   -5.2974   38.3941 C   0  0  0  0  0  0  0  0  0  0  0  0
   -0.3735   -5.7805   34.0786 C   0  0  0  0  0  0  0  0  0  0  0  0
   -1.1560   -5.6740   35.7883 Br  0  0  0  0  0  0  0  0  0  0  0  0
   -1.1244   -6.5307   33.2211 C   0  0  0  0  0  0  0  0  0  0  0  0
   -0.9209   -6.4552   31.8741 C   0  0  0  0  0  0  0  0  0  0  0  0
    0.2375   -5.9988   31.3573 C   0  0  0  0  0  0  0  0  0  0  0  0
    0.5116   -6.5623   30.1233 O   0  0  0  0  0  0  0  0  0  0  0  0
   -0.5777   -7.4638   29.8531 C   0  0  0  0  0  0  0  0  0  0  0  0
   -0.0879   -8.6836   29.3290 O   0  0  0  0  0  0  0  0  0  0  0  0
   -1.4619   -7.5621   31.0945 C   0  0  0  0  0  0  0  0  0  0  0  0
   -1.2512   -8.5801   32.1632 C   0  0  0  0  0  0  0  0  0  0  0  0
   -1.5648   -7.9355   33.5229 C   0  0  0  0  0  0  0  0  0  0  0  0
    3.6457   -3.5964   28.9323 H   0  0  0  0  0  0  0  0  0  0  0  0
    3.5732   -5.3503   28.6582 H   0  0  0  0  0  0  0  0  0  0  0  0
    4.5339   -4.6945   30.0185 H   0  0  0  0  0  0  0  0  0  0  0  0
    1.4582   -4.3537   29.7886 H   0  0  0  0  0  0  0  0  0  0  0  0
    2.7982   -4.7554   34.0968 H   0  0  0  0  0  0  0  0  0  0  0  0
    2.7791   -3.2027   37.1688 H   0  0  0  0  0  0  0  0  0  0  0  0
    1.2876   -2.8004   36.2928 H   0  0  0  0  0  0  0  0  0  0  0  0
    1.1829   -1.5220   38.2878 H   0  0  0  0  0  0  0  0  0  0  0  0
    1.7842   -2.8245   39.2994 H   0  0  0  0  0  0  0  0  0  0  0  0
   -0.5766   -2.4961   39.5763 H   0  0  0  0  0  0  0  0  0  0  0  0
   -0.3514   -4.6337   40.0644 H   0  0  0  0  0  0  0  0  0  0  0  0
   -1.2800   -4.7916   38.5933 H   0  0  0  0  0  0  0  0  0  0  0  0
    1.6929   -5.2967   39.0896 H   0  0  0  0  0  0  0  0  0  0  0  0
    0.5078   -6.3336   38.2909 H   0  0  0  0  0  0  0  0  0  0  0  0
   -1.1386   -7.0031   29.0334 H   0  0  0  0  0  0  0  0  0  0  0  0
    0.2128   -9.2530   30.0656 H   0  0  0  0  0  0  0  0  0  0  0  0
   -2.5116   -7.4467   30.9012 H   0  0  0  0  0  0  0  0  0  0  0  0
   -0.2031   -8.8163   32.1649 H   0  0  0  0  0  0  0  0  0  0  0  0
   -1.8027   -9.4691   31.9462 H   0  0  0  0  0  0  0  0  0  0  0  0
   -2.5879   -8.0495   33.8443 H   0  0  0  0  0  0  0  0  0  0  0  0
   -0.9130   -8.3435   34.2981 H   0  0  0  0  0  0  0  0  0  0  0  0
  1  2  1  0
  2  3  2  3
  3  4  1  0
  4  5  2  0
  5  6  1  0
  6  7  1  0
  7  8  2  0
  7  9  2  0
  7 10  1  0
 10 11  1  0
 11 12  1  0
 12 13  1  0
 13 14  1  0
 14 15  1  0
  5 16  1  0
 16 17  1  0
 16 18  2  0
 18 19  1  0
 19 20  2  0
 20 21  1  0
 21 22  1  0
 22 23  1  0
 22 24  1  0
 24 25  1  0
 25 26  1  0
 20  4  1  0
 15 10  1  0
 26 18  1  0
 24 19  1  0
  1 27  1  0
  1 28  1  0
  1 29  1  0
  2 30  1  0
  6 31  1  0
 11 32  1  0
 11 33  1  0
 12 34  1  0
 12 35  1  0
 13 36  1  0
 14 37  1  0
 14 38  1  0
 15 39  1  0
 15 40  1  0
 22 41  1  0
 23 42  1  0
 24 43  1  0
 25 44  1  0
 25 45  1  0
 26 46  1  0
 26 47  1  0
M  END
>  <Energy>  (300) 
38.989379166383912

>  <compound_id>  (300) 
1160

>  <target_id>  (300) 
1

>  <reference_id>  (300) 
168

>  <inspiration_ids>  (300) 
[168, 200]

>  <energy_score>  (300) 
-21.572207238447646

>  <distance_score>  (300) 
1.908377496929065

>  <path>  (300) 
/opt/xchem-fragalysis-2/maxwin/BulkDock/SCRATCH/505736/C1160-P168/C1160-P168.minimised.mol

>  <scratch_subdir>  (300) 
/opt/xchem-fragalysis-2/maxwin/BulkDock/SCRATCH/505736/C1160-P168

>  <fragmenstein_runtime>  (300) 
7.066393852233887

>  <fragmenstein_outcome>  (300) 
too moved

>  <fragmenstein_mode>  (300) 
expansion

>  <fragmenstein_error>  (300) 


$$$$
C1160-P200
     RDKit          3D

 47 50  0  0  0  0  0  0  0  0999 V2000
    3.5688   -5.1539   28.9667 C   0  0  0  0  0  0  0  0  0  0  0  0
    2.4052   -5.0838   29.9100 C   0  0  0  0  0  0  0  0  0  0  0  0
    2.5042   -5.4697   31.1544 N   0  0  0  0  0  0  0  0  0  0  0  0
    1.3060   -5.5099   31.9292 C   0  0  0  0  0  0  0  0  0  0  0  0
    1.1371   -5.2091   33.3203 C   0  0  0  0  0  0  0  0  0  0  0  0
    2.2072   -5.1042   34.2898 N   0  0  0  0  0  0  0  0  0  0  0  0
    1.9825   -5.8596   35.8207 S   0  0  0  0  0  0  0  0  0  0  0  0
    3.2682   -5.8513   36.4727 O   0  0  0  0  0  0  0  0  0  0  0  0
    1.2901   -7.1147   35.6361 O   0  0  0  0  0  0  0  0  0  0  0  0
    0.9746   -4.7800   36.6156 N   0  0  0  0  0  0  0  0  0  0  0  0
    1.5876   -3.5055   37.0974 C   0  0  0  0  0  0  0  0  0  0  0  0
    1.0476   -3.0612   38.4712 C   0  0  0  0  0  0  0  0  0  0  0  0
   -0.4140   -2.9920   38.5149 N   0  0  0  0  0  0  0  0  0  0  0  0
   -1.0186   -4.2411   38.0260 C   0  0  0  0  0  0  0  0  0  0  0  0
   -0.0463   -5.3410   37.5368 C   0  0  0  0  0  0  0  0  0  0  0  0
   -0.1541   -5.1147   33.8481 C   0  0  0  0  0  0  0  0  0  0  0  0
   -0.7142   -3.2907   34.1298 Br  0  0  0  0  0  0  0  0  0  0  0  0
   -1.0832   -5.9901   33.3460 C   0  0  0  0  0  0  0  0  0  0  0  0
   -0.9842   -6.2854   32.0054 C   0  0  0  0  0  0  0  0  0  0  0  0
    0.2003   -6.1006   31.3358 C   0  0  0  0  0  0  0  0  0  0  0  0
    0.3472   -6.9611   30.2598 O   0  0  0  0  0  0  0  0  0  0  0  0
   -0.8757   -7.6901   30.2447 C   0  0  0  0  0  0  0  0  0  0  0  0
   -0.6793   -9.0181   29.8316 O   0  0  0  0  0  0  0  0  0  0  0  0
   -1.6274   -7.5278   31.5534 C   0  0  0  0  0  0  0  0  0  0  0  0
   -1.3561   -8.2902   32.8118 C   0  0  0  0  0  0  0  0  0  0  0  0
   -1.4366   -7.3150   34.0073 C   0  0  0  0  0  0  0  0  0  0  0  0
    3.7291   -4.1648   28.5305 H   0  0  0  0  0  0  0  0  0  0  0  0
    3.3287   -5.8563   28.1643 H   0  0  0  0  0  0  0  0  0  0  0  0
    4.4749   -5.4788   29.4817 H   0  0  0  0  0  0  0  0  0  0  0  0
    1.4585   -4.7086   29.4773 H   0  0  0  0  0  0  0  0  0  0  0  0
    3.1165   -5.3478   33.8953 H   0  0  0  0  0  0  0  0  0  0  0  0
    2.6761   -3.5871   37.1735 H   0  0  0  0  0  0  0  0  0  0  0  0
    1.3782   -2.7278   36.3552 H   0  0  0  0  0  0  0  0  0  0  0  0
    1.4538   -2.0720   38.7095 H   0  0  0  0  0  0  0  0  0  0  0  0
    1.4074   -3.7446   39.2508 H   0  0  0  0  0  0  0  0  0  0  0  0
   -0.7257   -2.8083   39.4678 H   0  0  0  0  0  0  0  0  0  0  0  0
   -1.6293   -4.6645   38.8289 H   0  0  0  0  0  0  0  0  0  0  0  0
   -1.6999   -3.9772   37.2104 H   0  0  0  0  0  0  0  0  0  0  0  0
    0.4546   -5.8094   38.3923 H   0  0  0  0  0  0  0  0  0  0  0  0
   -0.6339   -6.1080   37.0222 H   0  0  0  0  0  0  0  0  0  0  0  0
   -1.4740   -7.2231   29.4572 H   0  0  0  0  0  0  0  0  0  0  0  0
   -0.0475   -9.4489   30.4350 H   0  0  0  0  0  0  0  0  0  0  0  0
   -2.6883   -7.5334   31.3860 H   0  0  0  0  0  0  0  0  0  0  0  0
   -0.3554   -8.6943   32.7573 H   0  0  0  0  0  0  0  0  0  0  0  0
   -2.0877   -9.0763   32.9053 H   0  0  0  0  0  0  0  0  0  0  0  0
   -2.4066   -7.2925   34.4925 H   0  0  0  0  0  0  0  0  0  0  0  0
   -0.7274   -7.6267   34.7695 H   0  0  0  0  0  0  0  0  0  0  0  0
  1  2  1  0
  2  3  2  3
  3  4  1  0
  4  5  2  0
  5  6  1  0
  6  7  1  0
  7  8  2  0
  7  9  2  0
  7 10  1  0
 10 11  1  0
 11 12  1  0
 12 13  1  0
 13 14  1  0
 14 15  1  0
  5 16  1  0
 16 17  1  0
 16 18  2  0
 18 19  1  0
 19 20  2  0
 20 21  1  0
 21 22  1  0
 22 23  1  0
 22 24  1  0
 24 25  1  0
 25 26  1  0
 20  4  1  0
 15 10  1  0
 26 18  1  0
 24 19  1  0
  1 27  1  0
  1 28  1  0
  1 29  1  0
  2 30  1  0
  6 31  1  0
 11 32  1  0
 11 33  1  0
 12 34  1  0
 12 35  1  0
 13 36  1  0
 14 37  1  0
 14 38  1  0
 15 39  1  0
 15 40  1  0
 22 41  1  0
 23 42  1  0
 24 43  1  0
 25 44  1  0
 25 45  1  0
 26 46  1  0
 26 47  1  0
M  END
>  <Energy>  (301) 
55.802358603927736

>  <compound_id>  (301) 
1160

>  <target_id>  (301) 
1

>  <reference_id>  (301) 
200

>  <inspiration_ids>  (301) 
[168, 200]

>  <energy_score>  (301) 
-4.759227800903403

>  <distance_score>  (301) 
1.6198854946042147

>  <path>  (301) 
/opt/xchem-fragalysis-2/maxwin/BulkDock/SCRATCH/505736/C1160-P200/C1160-P200.minimised.mol

>  <scratch_subdir>  (301) 
/opt/xchem-fragalysis-2/maxwin/BulkDock/SCRATCH/505736/C1160-P200

>  <fragmenstein_runtime>  (301) 
7.4182398319244385

>  <fragmenstein_outcome>  (301) 
too moved

>  <fragmenstein_mode>  (301) 
expansion

>  <fragmenstein_error>  (301) 


$$$$
C2533-P168
     RDKit          3D

 37 39  0  0  0  0  0  0  0  0999 V2000
    2.5797   -5.7759   36.5524 O   0  0  0  0  0  0  0  0  0  0  0  0
    1.1666   -5.6481   36.2875 S   0  0  0  0  0  0  0  0  0  0  0  0
    0.3009   -6.7998   36.2219 O   0  0  0  0  0  0  0  0  0  0  0  0
    1.0588   -4.6303   34.9369 N   0  0  0  0  0  0  0  0  0  0  0  0
    0.6570   -5.1382   33.6770 C   0  0  0  0  0  0  0  0  0  0  0  0
    1.4410   -4.9753   32.5106 C   0  0  0  0  0  0  0  0  0  0  0  0
    1.0955   -5.6085   31.3101 C   0  0  0  0  0  0  0  0  0  0  0  0
   -0.0124   -6.4196   31.3387 C   0  0  0  0  0  0  0  0  0  0  0  0
   -0.8282   -6.4905   32.4724 C   0  0  0  0  0  0  0  0  0  0  0  0
   -0.5464   -5.7981   33.6147 C   0  0  0  0  0  0  0  0  0  0  0  0
   -1.8031   -7.5285   32.3887 N   0  0  0  0  0  0  0  0  0  0  0  0
   -1.7696   -8.0842   33.7189 F   0  0  0  0  0  0  0  0  0  0  0  0
   -1.0341   -8.4090   31.5172 C   0  0  0  0  0  0  0  0  0  0  0  0
   -0.4399   -7.5092   30.4177 C   0  0  0  0  0  0  0  0  0  0  0  0
    0.5664   -8.0935   29.7347 F   0  0  0  0  0  0  0  0  0  0  0  0
    0.5046   -4.5518   37.3702 N   0  0  0  0  0  0  0  0  0  0  0  0
    1.0494   -4.5744   38.7530 C   0  0  0  0  0  0  0  0  0  0  0  0
    0.2135   -3.6661   39.6883 C   0  0  0  0  0  0  0  0  0  0  0  0
   -0.4653   -2.5623   38.9805 N   0  0  0  0  0  0  0  0  0  0  0  0
   -1.4247   -3.1308   38.0094 C   0  0  0  0  0  0  0  0  0  0  0  0
   -0.9830   -4.4589   37.3625 C   0  0  0  0  0  0  0  0  0  0  0  0
    1.8748   -4.0212   34.9339 H   0  0  0  0  0  0  0  0  0  0  0  0
    2.3614   -4.3973   32.5577 H   0  0  0  0  0  0  0  0  0  0  0  0
    1.7424   -5.5502   30.4419 H   0  0  0  0  0  0  0  0  0  0  0  0
   -1.1902   -5.9032   34.4792 H   0  0  0  0  0  0  0  0  0  0  0  0
   -0.2392   -8.8140   32.1240 H   0  0  0  0  0  0  0  0  0  0  0  0
   -1.5770   -9.2767   31.1734 H   0  0  0  0  0  0  0  0  0  0  0  0
   -1.1858   -7.1646   29.7018 H   0  0  0  0  0  0  0  0  0  0  0  0
    1.0635   -5.5959   39.1481 H   0  0  0  0  0  0  0  0  0  0  0  0
    2.0756   -4.1912   38.7181 H   0  0  0  0  0  0  0  0  0  0  0  0
   -0.5379   -4.2687   40.2149 H   0  0  0  0  0  0  0  0  0  0  0  0
    0.8657   -3.2517   40.4651 H   0  0  0  0  0  0  0  0  0  0  0  0
    0.2545   -2.0864   38.4321 H   0  0  0  0  0  0  0  0  0  0  0  0
   -1.5833   -2.3819   37.2241 H   0  0  0  0  0  0  0  0  0  0  0  0
   -2.3966   -3.2711   38.4963 H   0  0  0  0  0  0  0  0  0  0  0  0
   -1.3784   -4.4968   36.3448 H   0  0  0  0  0  0  0  0  0  0  0  0
   -1.3936   -5.3047   37.9261 H   0  0  0  0  0  0  0  0  0  0  0  0
  1  2  2  0
  2  3  2  0
  2  4  1  0
  4  5  1  0
  5  6  2  0
  6  7  1  0
  7  8  2  0
  8  9  1  0
  9 10  2  0
  9 11  1  0
 11 12  1  0
 11 13  1  0
 13 14  1  0
 14 15  1  0
  2 16  1  0
 16 17  1  0
 17 18  1  0
 18 19  1  0
 19 20  1  0
 20 21  1  0
 10  5  1  0
 21 16  1  0
 14  8  1  0
  4 22  1  0
  6 23  1  0
  7 24  1  0
 10 25  1  0
 13 26  1  0
 13 27  1  0
 14 28  1  0
 17 29  1  0
 17 30  1  0
 18 31  1  0
 18 32  1  0
 19 33  1  0
 20 34  1  0
 20 35  1  0
 21 36  1  0
 21 37  1  0
M  END
>  <Energy>  (302) 
-35.73313609253713

>  <compound_id>  (302) 
2533

>  <target_id>  (302) 
1

>  <reference_id>  (302) 
168

>  <inspiration_ids>  (302) 
[168, 201]

>  <energy_score>  (302) 
-57.26545996283619

>  <distance_score>  (302) 
1.7866631545282992

>  <path>  (302) 
/opt/xchem-fragalysis-2/maxwin/BulkDock/SCRATCH/505736/C2533-P168/C2533-P168.minimised.mol

>  <scratch_subdir>  (302) 
/opt/xchem-fragalysis-2/maxwin/BulkDock/SCRATCH/505736/C2533-P168

>  <fragmenstein_runtime>  (302) 
2.9666495323181152

>  <fragmenstein_outcome>  (302) 
too moved

>  <fragmenstein_mode>  (302) 
expansion

>  <fragmenstein_error>  (302) 


$$$$
C2533-P201
     RDKit          3D

 37 39  0  0  0  0  0  0  0  0999 V2000
    2.6934   -5.7034   36.5869 O   0  0  0  0  0  0  0  0  0  0  0  0
    1.2840   -5.5953   36.2913 S   0  0  0  0  0  0  0  0  0  0  0  0
    0.4264   -6.7526   36.2780 O   0  0  0  0  0  0  0  0  0  0  0  0
    1.1960   -4.6448   34.8913 N   0  0  0  0  0  0  0  0  0  0  0  0
    0.7407   -5.1932   33.6656 C   0  0  0  0  0  0  0  0  0  0  0  0
    1.4656   -5.0575   32.4565 C   0  0  0  0  0  0  0  0  0  0  0  0
    1.0602   -5.7177   31.2874 C   0  0  0  0  0  0  0  0  0  0  0  0
   -0.0486   -6.5220   31.3879 C   0  0  0  0  0  0  0  0  0  0  0  0
   -0.8002   -6.5680   32.5628 C   0  0  0  0  0  0  0  0  0  0  0  0
   -0.4645   -5.8498   33.6727 C   0  0  0  0  0  0  0  0  0  0  0  0
   -1.7813   -7.5952   32.5508 N   0  0  0  0  0  0  0  0  0  0  0  0
   -1.6736   -8.1358   33.8809 F   0  0  0  0  0  0  0  0  0  0  0  0
   -1.1015   -8.5011   31.6379 C   0  0  0  0  0  0  0  0  0  0  0  0
   -0.5650   -7.6050   30.5050 C   0  0  0  0  0  0  0  0  0  0  0  0
    0.3810   -8.2128   29.7565 F   0  0  0  0  0  0  0  0  0  0  0  0
    0.6072   -4.4572   37.3312 N   0  0  0  0  0  0  0  0  0  0  0  0
    1.0756   -4.5288   38.7433 C   0  0  0  0  0  0  0  0  0  0  0  0
    0.2056   -3.6401   39.6645 C   0  0  0  0  0  0  0  0  0  0  0  0
   -0.4246   -2.5078   38.9590 N   0  0  0  0  0  0  0  0  0  0  0  0
   -1.3450   -3.0403   37.9321 C   0  0  0  0  0  0  0  0  0  0  0  0
   -0.8802   -4.3470   37.2572 C   0  0  0  0  0  0  0  0  0  0  0  0
    2.0324   -4.0673   34.8424 H   0  0  0  0  0  0  0  0  0  0  0  0
    2.3849   -4.4766   32.4434 H   0  0  0  0  0  0  0  0  0  0  0  0
    1.6573   -5.6755   30.3835 H   0  0  0  0  0  0  0  0  0  0  0  0
   -1.0757   -5.9353   34.5624 H   0  0  0  0  0  0  0  0  0  0  0  0
   -0.2683   -8.9358   32.1719 H   0  0  0  0  0  0  0  0  0  0  0  0
   -1.7078   -9.3497   31.3458 H   0  0  0  0  0  0  0  0  0  0  0  0
   -1.3599   -7.2258   29.8563 H   0  0  0  0  0  0  0  0  0  0  0  0
    1.0570   -5.5615   39.1082 H   0  0  0  0  0  0  0  0  0  0  0  0
    2.1074   -4.1601   38.7729 H   0  0  0  0  0  0  0  0  0  0  0  0
   -0.5766   -4.2491   40.1360 H   0  0  0  0  0  0  0  0  0  0  0  0
    0.8241   -3.2575   40.4841 H   0  0  0  0  0  0  0  0  0  0  0  0
    0.3258   -2.0318   38.4527 H   0  0  0  0  0  0  0  0  0  0  0  0
   -1.4723   -2.2645   37.1675 H   0  0  0  0  0  0  0  0  0  0  0  0
   -2.3350   -3.1938   38.3764 H   0  0  0  0  0  0  0  0  0  0  0  0
   -1.2222   -4.3363   36.2203 H   0  0  0  0  0  0  0  0  0  0  0  0
   -1.3277   -5.2090   37.7651 H   0  0  0  0  0  0  0  0  0  0  0  0
  1  2  2  0
  2  3  2  0
  2  4  1  0
  4  5  1  0
  5  6  2  0
  6  7  1  0
  7  8  2  0
  8  9  1  0
  9 10  2  0
  9 11  1  0
 11 12  1  0
 11 13  1  0
 13 14  1  0
 14 15  1  0
  2 16  1  0
 16 17  1  0
 17 18  1  0
 18 19  1  0
 19 20  1  0
 20 21  1  0
 10  5  1  0
 21 16  1  0
 14  8  1  0
  4 22  1  0
  6 23  1  0
  7 24  1  0
 10 25  1  0
 13 26  1  0
 13 27  1  0
 14 28  1  0
 17 29  1  0
 17 30  1  0
 18 31  1  0
 18 32  1  0
 19 33  1  0
 20 34  1  0
 20 35  1  0
 21 36  1  0
 21 37  1  0
M  END
>  <Energy>  (303) 
-36.715198249279389

>  <compound_id>  (303) 
2533

>  <target_id>  (303) 
1

>  <reference_id>  (303) 
201

>  <inspiration_ids>  (303) 
[168, 201]

>  <energy_score>  (303) 
-58.24752211957824

>  <distance_score>  (303) 
1.749254384282778

>  <path>  (303) 
/opt/xchem-fragalysis-2/maxwin/BulkDock/SCRATCH/505736/C2533-P201/C2533-P201.minimised.mol

>  <scratch_subdir>  (303) 
/opt/xchem-fragalysis-2/maxwin/BulkDock/SCRATCH/505736/C2533-P201

>  <fragmenstein_runtime>  (303) 
2.9652109146118164

>  <fragmenstein_outcome>  (303) 
too moved

>  <fragmenstein_mode>  (303) 
expansion

>  <fragmenstein_error>  (303) 


$$$$
C2536-P169
     RDKit          3D

 63 67  0  0  0  0  0  0  0  0999 V2000
  -11.1163    8.1567    8.0556 O   0  0  0  0  0  0  0  0  0  0  0  0
  -10.0830    7.6722    7.6318 C   0  0  0  0  0  0  0  0  0  0  0  0
   -9.1369    8.4443    7.0673 O   0  0  0  0  0  0  0  0  0  0  0  0
   -9.7197    6.2356    7.6568 C   0  0  0  0  0  0  0  0  0  0  0  0
  -10.6360    5.3305    8.1926 C   0  0  0  0  0  0  0  0  0  0  0  0
  -10.3326    3.9688    8.2259 C   0  0  0  0  0  0  0  0  0  0  0  0
   -9.1179    3.4789    7.7099 C   0  0  0  0  0  0  0  0  0  0  0  0
   -8.7575    2.0134    7.8598 C   0  0  0  0  0  0  0  0  0  0  0  0
   -9.8273    1.0842    7.4468 N   0  0  0  0  0  0  0  0  0  0  0  0
  -10.5310    0.3007    8.5515 S   0  0  0  0  0  0  0  0  0  0  0  0
  -10.8706    0.8186    9.8533 O   0  0  0  0  0  0  0  0  0  0  0  0
   -9.6804   -1.1086    8.8711 N   0  0  0  0  0  0  0  0  0  0  0  0
   -8.4711   -1.4138    8.2242 C   0  0  0  0  0  0  0  0  0  0  0  0
   -8.4173   -2.3976    7.2183 C   0  0  0  0  0  0  0  0  0  0  0  0
   -7.2327   -2.6467    6.5182 C   0  0  0  0  0  0  0  0  0  0  0  0
   -6.1149   -1.9026    6.8461 C   0  0  0  0  0  0  0  0  0  0  0  0
   -6.1627   -0.9457    7.8426 C   0  0  0  0  0  0  0  0  0  0  0  0
   -7.3154   -0.6918    8.5430 C   0  0  0  0  0  0  0  0  0  0  0  0
   -4.9738   -0.3112    8.0724 O   0  0  0  0  0  0  0  0  0  0  0  0
   -4.0260   -1.1070    7.3331 C   0  0  0  0  0  0  0  0  0  0  0  0
   -4.7582   -1.9252    6.2679 C   0  0  0  0  0  0  0  0  0  0  0  0
  -12.0204   -0.1307    7.8713 N   0  0  0  0  0  0  0  0  0  0  0  0
  -12.2062   -1.3448    7.0634 C   0  0  0  0  0  0  0  0  0  0  0  0
  -12.1392   -1.1354    5.5339 C   0  0  0  0  0  0  0  0  0  0  0  0
  -11.6224    0.1823    5.1337 N   0  0  0  0  0  0  0  0  0  0  0  0
  -12.4410    1.2291    5.7734 C   0  0  0  0  0  0  0  0  0  0  0  0
  -12.8159    0.9403    7.2498 C   0  0  0  0  0  0  0  0  0  0  0  0
   -8.1718    4.4012    7.2104 C   0  0  0  0  0  0  0  0  0  0  0  0
   -6.9625    3.9372    6.6280 N   0  0  0  0  0  0  0  0  0  0  0  0
   -5.7228    4.5692    6.7971 C   0  0  0  0  0  0  0  0  0  0  0  0
   -5.0397    4.8364    5.6677 N   0  0  0  0  0  0  0  0  0  0  0  0
   -3.8891    5.5244    5.8071 C   0  0  0  0  0  0  0  0  0  0  0  0
   -3.3392    5.8432    7.0210 C   0  0  0  0  0  0  0  0  0  0  0  0
   -4.0675    5.4515    8.1144 C   0  0  0  0  0  0  0  0  0  0  0  0
   -5.2691    4.8524    8.0269 N   0  0  0  0  0  0  0  0  0  0  0  0
   -8.4957    5.7699    7.1646 C   0  0  0  0  0  0  0  0  0  0  0  0
   -9.5129    9.3471    7.1250 H   0  0  0  0  0  0  0  0  0  0  0  0
  -11.5845    5.6775    8.5971 H   0  0  0  0  0  0  0  0  0  0  0  0
  -11.0464    3.2877    8.6825 H   0  0  0  0  0  0  0  0  0  0  0  0
   -8.4573    1.8649    8.9011 H   0  0  0  0  0  0  0  0  0  0  0  0
   -7.8901    1.7726    7.2373 H   0  0  0  0  0  0  0  0  0  0  0  0
  -10.2846   -1.9179    8.9762 H   0  0  0  0  0  0  0  0  0  0  0  0
   -9.3061   -2.9689    6.9626 H   0  0  0  0  0  0  0  0  0  0  0  0
   -7.2039   -3.4014    5.7384 H   0  0  0  0  0  0  0  0  0  0  0  0
   -7.3128    0.0281    9.3521 H   0  0  0  0  0  0  0  0  0  0  0  0
   -3.4917   -1.7534    8.0388 H   0  0  0  0  0  0  0  0  0  0  0  0
   -3.2962   -0.4386    6.8837 H   0  0  0  0  0  0  0  0  0  0  0  0
   -4.3505   -2.9333    6.1771 H   0  0  0  0  0  0  0  0  0  0  0  0
   -4.7420   -1.4204    5.2971 H   0  0  0  0  0  0  0  0  0  0  0  0
  -11.4968   -2.1256    7.3386 H   0  0  0  0  0  0  0  0  0  0  0  0
  -13.1905   -1.7663    7.3062 H   0  0  0  0  0  0  0  0  0  0  0  0
  -13.1361   -1.2740    5.0973 H   0  0  0  0  0  0  0  0  0  0  0  0
  -11.4954   -1.9049    5.0931 H   0  0  0  0  0  0  0  0  0  0  0  0
  -10.6966    0.2841    5.5856 H   0  0  0  0  0  0  0  0  0  0  0  0
  -13.3592    1.3694    5.1905 H   0  0  0  0  0  0  0  0  0  0  0  0
  -11.8906    2.1751    5.7124 H   0  0  0  0  0  0  0  0  0  0  0  0
  -13.8727    0.6422    7.2868 H   0  0  0  0  0  0  0  0  0  0  0  0
  -12.7614    1.8627    7.8386 H   0  0  0  0  0  0  0  0  0  0  0  0
   -7.0800    3.8871    5.6184 H   0  0  0  0  0  0  0  0  0  0  0  0
   -3.3849    5.7900    4.8820 H   0  0  0  0  0  0  0  0  0  0  0  0
   -2.3845    6.3408    7.1146 H   0  0  0  0  0  0  0  0  0  0  0  0
   -3.7049    5.6220    9.1240 H   0  0  0  0  0  0  0  0  0  0  0  0
   -7.7832    6.4756    6.7442 H   0  0  0  0  0  0  0  0  0  0  0  0
  1  2  2  0
  2  3  1  0
  2  4  1  0
  4  5  2  0
  5  6  1  0
  6  7  2  0
  7  8  1  0
  8  9  1  0
  9 10  2  0
 10 11  2  0
 10 12  1  0
 12 13  1  0
 13 14  2  0
 14 15  1  0
 15 16  2  0
 16 17  1  0
 17 18  2  0
 17 19  1  0
 19 20  1  0
 20 21  1  0
 10 22  1  0
 22 23  1  0
 23 24  1  0
 24 25  1  0
 25 26  1  0
 26 27  1  0
  7 28  1  0
 28 29  1  0
 29 30  1  0
 30 31  2  0
 31 32  1  0
 32 33  2  0
 33 34  1  0
 34 35  2  0
 28 36  2  0
 36  4  1  0
 18 13  1  0
 27 22  1  0
 35 30  1  0
 21 16  1  0
  3 37  1  0
  5 38  1  0
  6 39  1  0
  8 40  1  0
  8 41  1  0
 12 42  1  0
 14 43  1  0
 15 44  1  0
 18 45  1  0
 20 46  1  0
 20 47  1  0
 21 48  1  0
 21 49  1  0
 23 50  1  0
 23 51  1  0
 24 52  1  0
 24 53  1  0
 25 54  1  0
 26 55  1  0
 26 56  1  0
 27 57  1  0
 27 58  1  0
 29 59  1  0
 32 60  1  0
 33 61  1  0
 34 62  1  0
 36 63  1  0
M  END
>  <Energy>  (304) 
-152.53170046123125

>  <compound_id>  (304) 
2536

>  <target_id>  (304) 
1

>  <reference_id>  (304) 
169

>  <inspiration_ids>  (304) 
[169, 33]

>  <energy_score>  (304) 
-104.07247042854375

>  <distance_score>  (304) 
1.2043534296758005

>  <path>  (304) 
/opt/xchem-fragalysis-2/maxwin/BulkDock/SCRATCH/505736/C2536-P169/C2536-P169.minimised.mol

>  <scratch_subdir>  (304) 
/opt/xchem-fragalysis-2/maxwin/BulkDock/SCRATCH/505736/C2536-P169

>  <fragmenstein_runtime>  (304) 
6.561161518096924

>  <fragmenstein_outcome>  (304) 
too moved

>  <fragmenstein_mode>  (304) 
expansion

>  <fragmenstein_error>  (304) 


$$$$
C2536-P33
     RDKit          3D

 63 67  0  0  0  0  0  0  0  0999 V2000
   -9.5650    6.8321    3.5885 O   0  0  0  0  0  0  0  0  0  0  0  0
  -10.4627    6.3476    4.2522 C   0  0  0  0  0  0  0  0  0  0  0  0
  -11.7508    6.5328    3.9074 O   0  0  0  0  0  0  0  0  0  0  0  0
  -10.3099    5.5253    5.4778 C   0  0  0  0  0  0  0  0  0  0  0  0
  -11.4102    5.0100    6.1585 C   0  0  0  0  0  0  0  0  0  0  0  0
  -11.2113    4.2478    7.3063 C   0  0  0  0  0  0  0  0  0  0  0  0
   -9.9119    3.9803    7.7923 C   0  0  0  0  0  0  0  0  0  0  0  0
   -9.8057    3.1268    9.0440 C   0  0  0  0  0  0  0  0  0  0  0  0
   -9.3923    1.7645    8.7093 N   0  0  0  0  0  0  0  0  0  0  0  0
  -10.3828    0.6280    8.9186 S   0  0  0  0  0  0  0  0  0  0  0  0
  -11.2745    0.5115   10.0436 O   0  0  0  0  0  0  0  0  0  0  0  0
   -9.5918   -0.8380    8.8739 N   0  0  0  0  0  0  0  0  0  0  0  0
   -8.4072   -1.1146    8.1723 C   0  0  0  0  0  0  0  0  0  0  0  0
   -8.3378   -2.2520    7.3360 C   0  0  0  0  0  0  0  0  0  0  0  0
   -7.1466   -2.6143    6.6943 C   0  0  0  0  0  0  0  0  0  0  0  0
   -6.0244   -1.8461    6.9369 C   0  0  0  0  0  0  0  0  0  0  0  0
   -6.0935   -0.7243    7.7467 C   0  0  0  0  0  0  0  0  0  0  0  0
   -7.2651   -0.3244    8.3410 C   0  0  0  0  0  0  0  0  0  0  0  0
   -4.8865   -0.1025    7.9385 O   0  0  0  0  0  0  0  0  0  0  0  0
   -3.9506   -1.1083    7.5043 C   0  0  0  0  0  0  0  0  0  0  0  0
   -4.6321   -1.9972    6.4635 C   0  0  0  0  0  0  0  0  0  0  0  0
  -11.3803    0.6168    7.5603 N   0  0  0  0  0  0  0  0  0  0  0  0
  -12.5148   -0.3151    7.5065 C   0  0  0  0  0  0  0  0  0  0  0  0
  -13.2878   -0.2438    6.1792 C   0  0  0  0  0  0  0  0  0  0  0  0
  -12.4789   -0.5760    4.9991 N   0  0  0  0  0  0  0  0  0  0  0  0
  -11.0627   -0.2375    5.2079 C   0  0  0  0  0  0  0  0  0  0  0  0
  -10.8275    0.8872    6.2258 C   0  0  0  0  0  0  0  0  0  0  0  0
   -8.7804    4.4910    7.1016 C   0  0  0  0  0  0  0  0  0  0  0  0
   -7.4802    4.2823    7.5964 N   0  0  0  0  0  0  0  0  0  0  0  0
   -6.2036    4.6423    7.1591 C   0  0  0  0  0  0  0  0  0  0  0  0
   -5.9840    5.1323    5.9286 N   0  0  0  0  0  0  0  0  0  0  0  0
   -4.7222    5.4713    5.6020 C   0  0  0  0  0  0  0  0  0  0  0  0
   -3.6570    5.3320    6.4503 C   0  0  0  0  0  0  0  0  0  0  0  0
   -3.9622    4.8050    7.6766 C   0  0  0  0  0  0  0  0  0  0  0  0
   -5.2114    4.4569    8.0440 N   0  0  0  0  0  0  0  0  0  0  0  0
   -9.0154    5.2704    5.9539 C   0  0  0  0  0  0  0  0  0  0  0  0
  -11.6922    7.0740    3.0928 H   0  0  0  0  0  0  0  0  0  0  0  0
  -12.4223    5.1882    5.8050 H   0  0  0  0  0  0  0  0  0  0  0  0
  -12.0807    3.8383    7.8190 H   0  0  0  0  0  0  0  0  0  0  0  0
  -10.7504    3.1502    9.6018 H   0  0  0  0  0  0  0  0  0  0  0  0
   -9.0734    3.5753    9.7217 H   0  0  0  0  0  0  0  0  0  0  0  0
  -10.2330   -1.6206    8.9233 H   0  0  0  0  0  0  0  0  0  0  0  0
   -9.2202   -2.8734    7.1942 H   0  0  0  0  0  0  0  0  0  0  0  0
   -7.1072   -3.4950    6.0612 H   0  0  0  0  0  0  0  0  0  0  0  0
   -7.2610    0.5356    8.9994 H   0  0  0  0  0  0  0  0  0  0  0  0
   -3.6412   -1.6886    8.3807 H   0  0  0  0  0  0  0  0  0  0  0  0
   -3.0617   -0.6202    7.1145 H   0  0  0  0  0  0  0  0  0  0  0  0
   -4.2593   -3.0221    6.5044 H   0  0  0  0  0  0  0  0  0  0  0  0
   -4.5247   -1.5885    5.4540 H   0  0  0  0  0  0  0  0  0  0  0  0
  -12.1662   -1.3447    7.6567 H   0  0  0  0  0  0  0  0  0  0  0  0
  -13.2103   -0.0879    8.3225 H   0  0  0  0  0  0  0  0  0  0  0  0
  -13.6928    0.7676    6.0485 H   0  0  0  0  0  0  0  0  0  0  0  0
  -14.1525   -0.9130    6.2197 H   0  0  0  0  0  0  0  0  0  0  0  0
  -12.5243   -1.5963    4.8544 H   0  0  0  0  0  0  0  0  0  0  0  0
  -10.6296    0.0435    4.2418 H   0  0  0  0  0  0  0  0  0  0  0  0
  -10.5300   -1.1367    5.5402 H   0  0  0  0  0  0  0  0  0  0  0  0
  -11.2898    1.8030    5.8404 H   0  0  0  0  0  0  0  0  0  0  0  0
   -9.7501    1.0818    6.2598 H   0  0  0  0  0  0  0  0  0  0  0  0
   -7.3833    3.6546    8.3853 H   0  0  0  0  0  0  0  0  0  0  0  0
   -4.5984    5.8804    4.6039 H   0  0  0  0  0  0  0  0  0  0  0  0
   -2.6477    5.6017    6.1753 H   0  0  0  0  0  0  0  0  0  0  0  0
   -3.1929    4.6393    8.4245 H   0  0  0  0  0  0  0  0  0  0  0  0
   -8.1832    5.7022    5.4050 H   0  0  0  0  0  0  0  0  0  0  0  0
  1  2  2  0
  2  3  1  0
  2  4  1  0
  4  5  2  0
  5  6  1  0
  6  7  2  0
  7  8  1  0
  8  9  1  0
  9 10  2  0
 10 11  2  0
 10 12  1  0
 12 13  1  0
 13 14  2  0
 14 15  1  0
 15 16  2  0
 16 17  1  0
 17 18  2  0
 17 19  1  0
 19 20  1  0
 20 21  1  0
 10 22  1  0
 22 23  1  0
 23 24  1  0
 24 25  1  0
 25 26  1  0
 26 27  1  0
  7 28  1  0
 28 29  1  0
 29 30  1  0
 30 31  2  0
 31 32  1  0
 32 33  2  0
 33 34  1  0
 34 35  2  0
 28 36  2  0
 36  4  1  0
 18 13  1  0
 27 22  1  0
 35 30  1  0
 21 16  1  0
  3 37  1  0
  5 38  1  0
  6 39  1  0
  8 40  1  0
  8 41  1  0
 12 42  1  0
 14 43  1  0
 15 44  1  0
 18 45  1  0
 20 46  1  0
 20 47  1  0
 21 48  1  0
 21 49  1  0
 23 50  1  0
 23 51  1  0
 24 52  1  0
 24 53  1  0
 25 54  1  0
 26 55  1  0
 26 56  1  0
 27 57  1  0
 27 58  1  0
 29 59  1  0
 32 60  1  0
 33 61  1  0
 34 62  1  0
 36 63  1  0
M  END
>  <Energy>  (305) 
-156.38355467285214

>  <compound_id>  (305) 
2536

>  <target_id>  (305) 
1

>  <reference_id>  (305) 
33

>  <inspiration_ids>  (305) 
[169, 33]

>  <energy_score>  (305) 
-107.92432464016616

>  <distance_score>  (305) 
1.111790812012105

>  <path>  (305) 
/opt/xchem-fragalysis-2/maxwin/BulkDock/SCRATCH/505736/C2536-P33/C2536-P33.minimised.mol

>  <scratch_subdir>  (305) 
/opt/xchem-fragalysis-2/maxwin/BulkDock/SCRATCH/505736/C2536-P33

>  <fragmenstein_runtime>  (305) 
5.320826053619385

>  <fragmenstein_outcome>  (305) 
too moved

>  <fragmenstein_mode>  (305) 
expansion

>  <fragmenstein_error>  (305) 


$$$$
C2537-P169
     RDKit          3D

 65 69  0  0  0  0  0  0  0  0999 V2000
   -9.2388    5.1032   12.8982 C   0  0  0  0  0  0  0  0  0  0  0  0
  -10.6495    5.1041   11.8392 S   0  0  0  0  0  0  0  0  0  0  0  0
  -11.8092    5.4977   12.6100 O   0  0  0  0  0  0  0  0  0  0  0  0
  -10.2849    5.8154   10.6285 O   0  0  0  0  0  0  0  0  0  0  0  0
  -10.8784    3.4198   11.3945 C   0  0  0  0  0  0  0  0  0  0  0  0
  -10.0149    2.9060   10.4492 C   0  0  0  0  0  0  0  0  0  0  0  0
  -10.3115    1.7034    9.8553 C   0  0  0  0  0  0  0  0  0  0  0  0
  -11.5796    1.1530   10.0102 C   0  0  0  0  0  0  0  0  0  0  0  0
  -12.2900    0.4282    8.8467 C   0  0  0  0  0  0  0  0  0  0  0  0
  -12.6595   -0.8477    9.4024 O   0  0  0  0  0  0  0  0  0  0  0  0
  -13.6080    1.2420    8.5273 C   0  0  0  0  0  0  0  0  0  0  0  0
  -14.7566    0.4726    7.8516 C   0  0  0  0  0  0  0  0  0  0  0  0
  -14.5837    0.1093    6.4428 N   0  0  0  0  0  0  0  0  0  0  0  0
  -13.3554   -0.6379    6.2660 C   0  0  0  0  0  0  0  0  0  0  0  0
  -13.3304   -1.4563    4.9600 C   0  0  0  0  0  0  0  0  0  0  0  0
  -11.9495   -1.9250    4.7499 N   0  0  0  0  0  0  0  0  0  0  0  0
  -11.0580   -0.8145    4.4264 C   0  0  0  0  0  0  0  0  0  0  0  0
  -11.5847    0.5054    5.0134 C   0  0  0  0  0  0  0  0  0  0  0  0
  -12.2721    0.3258    6.2983 N   0  0  0  0  0  0  0  0  0  0  0  0
  -11.4184    0.2242    7.4620 C   0  0  0  0  0  0  0  0  0  0  0  0
  -10.4596    1.2448    7.2679 O   0  0  0  0  0  0  0  0  0  0  0  0
  -10.6805   -1.0413    7.4186 N   0  0  0  0  0  0  0  0  0  0  0  0
   -9.7805   -1.2841    8.4936 N   0  0  0  0  0  0  0  0  0  0  0  0
   -8.4513   -1.4590    8.0041 C   0  0  0  0  0  0  0  0  0  0  0  0
   -8.1593   -2.4935    7.0866 C   0  0  0  0  0  0  0  0  0  0  0  0
   -6.8786   -2.6391    6.5553 C   0  0  0  0  0  0  0  0  0  0  0  0
   -5.9069   -1.7493    6.9709 C   0  0  0  0  0  0  0  0  0  0  0  0
   -6.1936   -0.7419    7.8783 C   0  0  0  0  0  0  0  0  0  0  0  0
   -7.4512   -0.5713    8.4069 C   0  0  0  0  0  0  0  0  0  0  0  0
   -5.1167    0.0406    8.1945 O   0  0  0  0  0  0  0  0  0  0  0  0
   -3.9975   -0.6983    7.6648 C   0  0  0  0  0  0  0  0  0  0  0  0
   -4.4863   -1.6593    6.5821 C   0  0  0  0  0  0  0  0  0  0  0  0
  -12.3143    1.5255   11.1512 C   0  0  0  0  0  0  0  0  0  0  0  0
  -11.9755    2.6870   11.8389 C   0  0  0  0  0  0  0  0  0  0  0  0
   -9.1748    4.1465   13.3951 H   0  0  0  0  0  0  0  0  0  0  0  0
   -8.3443    5.2755   12.2991 H   0  0  0  0  0  0  0  0  0  0  0  0
   -9.3480    5.9070   13.6286 H   0  0  0  0  0  0  0  0  0  0  0  0
   -9.1658    3.4764   10.0863 H   0  0  0  0  0  0  0  0  0  0  0  0
   -9.5889    1.3458    9.1422 H   0  0  0  0  0  0  0  0  0  0  0  0
  -11.8317   -1.3614    9.3193 H   0  0  0  0  0  0  0  0  0  0  0  0
  -13.3591    2.1476    7.9570 H   0  0  0  0  0  0  0  0  0  0  0  0
  -14.0670    1.6163    9.4487 H   0  0  0  0  0  0  0  0  0  0  0  0
  -15.0025   -0.4202    8.4383 H   0  0  0  0  0  0  0  0  0  0  0  0
  -15.6499    1.1079    7.8987 H   0  0  0  0  0  0  0  0  0  0  0  0
  -15.3634   -0.4878    6.1737 H   0  0  0  0  0  0  0  0  0  0  0  0
  -13.2943   -1.3942    7.0594 H   0  0  0  0  0  0  0  0  0  0  0  0
  -13.6850   -0.8857    4.0915 H   0  0  0  0  0  0  0  0  0  0  0  0
  -14.0267   -2.2877    5.0746 H   0  0  0  0  0  0  0  0  0  0  0  0
  -11.9500   -2.7061    4.0883 H   0  0  0  0  0  0  0  0  0  0  0  0
  -10.0595   -1.0400    4.8145 H   0  0  0  0  0  0  0  0  0  0  0  0
  -10.9439   -0.6865    3.3470 H   0  0  0  0  0  0  0  0  0  0  0  0
  -12.3099    0.9395    4.3103 H   0  0  0  0  0  0  0  0  0  0  0  0
  -10.7806    1.2494    5.0363 H   0  0  0  0  0  0  0  0  0  0  0  0
   -9.6754    0.6927    7.1021 H   0  0  0  0  0  0  0  0  0  0  0  0
  -11.3029   -1.8251    7.2167 H   0  0  0  0  0  0  0  0  0  0  0  0
  -10.0012   -2.1977    8.9455 H   0  0  0  0  0  0  0  0  0  0  0  0
   -8.9473   -3.1745    6.7699 H   0  0  0  0  0  0  0  0  0  0  0  0
   -6.6636   -3.4298    5.8442 H   0  0  0  0  0  0  0  0  0  0  0  0
   -7.6456    0.2171    9.1218 H   0  0  0  0  0  0  0  0  0  0  0  0
   -3.5269   -1.2448    8.4878 H   0  0  0  0  0  0  0  0  0  0  0  0
   -3.2653    0.0124    7.2828 H   0  0  0  0  0  0  0  0  0  0  0  0
   -4.3795   -1.2280    5.5824 H   0  0  0  0  0  0  0  0  0  0  0  0
   -3.9776   -2.6221    6.6442 H   0  0  0  0  0  0  0  0  0  0  0  0
  -13.2523    1.0277   11.3890 H   0  0  0  0  0  0  0  0  0  0  0  0
  -12.6366    3.0768   12.6100 H   0  0  0  0  0  0  0  0  0  0  0  0
  1  2  1  0
  2  3  2  0
  2  4  2  0
  2  5  1  0
  5  6  2  0
  6  7  1  0
  7  8  2  0
  8  9  1  0
  9 10  1  0
  9 11  1  0
 11 12  1  0
 12 13  1  0
 13 14  1  0
 14 15  1  0
 15 16  1  0
 16 17  1  0
 17 18  1  0
 18 19  1  0
 19 20  1  0
 20 21  1  0
 20 22  1  0
 22 23  1  0
 23 24  1  0
 24 25  2  0
 25 26  1  0
 26 27  2  0
 27 28  1  0
 28 29  2  0
 28 30  1  0
 30 31  1  0
 31 32  1  0
  8 33  1  0
 33 34  2  0
 34  5  1  0
 20  9  1  0
 29 24  1  0
 19 14  1  0
 32 27  1  0
  1 35  1  0
  1 36  1  0
  1 37  1  0
  6 38  1  0
  7 39  1  0
 10 40  1  0
 11 41  1  0
 11 42  1  0
 12 43  1  0
 12 44  1  0
 13 45  1  0
 14 46  1  0
 15 47  1  0
 15 48  1  0
 16 49  1  0
 17 50  1  0
 17 51  1  0
 18 52  1  0
 18 53  1  0
 21 54  1  0
 22 55  1  0
 23 56  1  0
 25 57  1  0
 26 58  1  0
 29 59  1  0
 31 60  1  0
 31 61  1  0
 32 62  1  0
 32 63  1  0
 33 64  1  0
 34 65  1  0
M  END
>  <Energy>  (306) 
199.24365527704606

>  <compound_id>  (306) 
2537

>  <target_id>  (306) 
1

>  <reference_id>  (306) 
169

>  <inspiration_ids>  (306) 
[169, 37]

>  <energy_score>  (306) 
-64.4960696194803

>  <distance_score>  (306) 
1.1733045880126203

>  <path>  (306) 
/opt/xchem-fragalysis-2/maxwin/BulkDock/SCRATCH/505736/C2537-P169/C2537-P169.minimised.mol

>  <scratch_subdir>  (306) 
/opt/xchem-fragalysis-2/maxwin/BulkDock/SCRATCH/505736/C2537-P169

>  <fragmenstein_runtime>  (306) 
4.351701259613037

>  <fragmenstein_outcome>  (306) 
too moved

>  <fragmenstein_mode>  (306) 
expansion

>  <fragmenstein_error>  (306) 


$$$$
C2537-P37
     RDKit          3D

 65 69  0  0  0  0  0  0  0  0999 V2000
   -9.1466    4.6635   12.8468 C   0  0  0  0  0  0  0  0  0  0  0  0
  -10.4410    4.7538   11.6596 S   0  0  0  0  0  0  0  0  0  0  0  0
  -11.6411    5.2295   12.3157 O   0  0  0  0  0  0  0  0  0  0  0  0
   -9.9116    5.4505   10.5014 O   0  0  0  0  0  0  0  0  0  0  0  0
  -10.7447    3.0813   11.1538 C   0  0  0  0  0  0  0  0  0  0  0  0
  -10.0371    2.6219   10.0561 C   0  0  0  0  0  0  0  0  0  0  0  0
  -10.5836    1.6099    9.2830 C   0  0  0  0  0  0  0  0  0  0  0  0
  -11.8406    1.0649    9.5673 C   0  0  0  0  0  0  0  0  0  0  0  0
  -12.7380    0.3470    8.5043 C   0  0  0  0  0  0  0  0  0  0  0  0
  -13.0799   -0.9013    9.1556 O   0  0  0  0  0  0  0  0  0  0  0  0
  -14.0349    1.1813    8.3575 C   0  0  0  0  0  0  0  0  0  0  0  0
  -15.2401    0.3628    7.9175 C   0  0  0  0  0  0  0  0  0  0  0  0
  -15.3205    0.1317    6.4921 N   0  0  0  0  0  0  0  0  0  0  0  0
  -14.2853   -0.7129    5.9102 C   0  0  0  0  0  0  0  0  0  0  0  0
  -14.8607   -1.0120    4.4576 C   0  0  0  0  0  0  0  0  0  0  0  0
  -13.9648   -1.5516    3.4267 N   0  0  0  0  0  0  0  0  0  0  0  0
  -12.5739   -1.1738    3.7024 C   0  0  0  0  0  0  0  0  0  0  0  0
  -12.4292    0.1062    4.5349 C   0  0  0  0  0  0  0  0  0  0  0  0
  -13.0364    0.0155    5.8715 N   0  0  0  0  0  0  0  0  0  0  0  0
  -12.1197    0.0329    7.0023 C   0  0  0  0  0  0  0  0  0  0  0  0
  -11.1731    1.0316    6.6674 O   0  0  0  0  0  0  0  0  0  0  0  0
  -11.4045   -1.2569    7.0126 N   0  0  0  0  0  0  0  0  0  0  0  0
  -10.4167   -1.2975    8.0561 N   0  0  0  0  0  0  0  0  0  0  0  0
   -9.0929   -1.4782    7.5811 C   0  0  0  0  0  0  0  0  0  0  0  0
   -8.8307   -2.5116    6.6579 C   0  0  0  0  0  0  0  0  0  0  0  0
   -7.5334   -2.8707    6.3646 C   0  0  0  0  0  0  0  0  0  0  0  0
   -6.5404   -2.1658    7.0075 C   0  0  0  0  0  0  0  0  0  0  0  0
   -6.7820   -1.1096    7.8701 C   0  0  0  0  0  0  0  0  0  0  0  0
   -8.0603   -0.7595    8.1914 C   0  0  0  0  0  0  0  0  0  0  0  0
   -5.6636   -0.5974    8.4731 O   0  0  0  0  0  0  0  0  0  0  0  0
   -4.5776   -1.2652    7.7885 C   0  0  0  0  0  0  0  0  0  0  0  0
   -5.1357   -2.5453    7.1253 C   0  0  0  0  0  0  0  0  0  0  0  0
  -12.3796    1.3513   10.8417 C   0  0  0  0  0  0  0  0  0  0  0  0
  -11.8605    2.3900   11.6186 C   0  0  0  0  0  0  0  0  0  0  0  0
   -8.7094    3.6724   12.8120 H   0  0  0  0  0  0  0  0  0  0  0  0
   -8.3892    5.4103   12.5986 H   0  0  0  0  0  0  0  0  0  0  0  0
   -9.5479    4.8849   13.8296 H   0  0  0  0  0  0  0  0  0  0  0  0
   -9.1552    3.1422    9.6881 H   0  0  0  0  0  0  0  0  0  0  0  0
  -10.0320    1.3859    8.3839 H   0  0  0  0  0  0  0  0  0  0  0  0
  -12.2169   -1.3538    9.1999 H   0  0  0  0  0  0  0  0  0  0  0  0
  -13.8674    2.0435    7.6979 H   0  0  0  0  0  0  0  0  0  0  0  0
  -14.3373    1.6221    9.3142 H   0  0  0  0  0  0  0  0  0  0  0  0
  -15.3387   -0.5760    8.4715 H   0  0  0  0  0  0  0  0  0  0  0  0
  -16.1331    0.9436    8.1831 H   0  0  0  0  0  0  0  0  0  0  0  0
  -16.2243   -0.2976    6.3026 H   0  0  0  0  0  0  0  0  0  0  0  0
  -14.1898   -1.6730    6.4306 H   0  0  0  0  0  0  0  0  0  0  0  0
  -15.2648   -0.0738    4.0467 H   0  0  0  0  0  0  0  0  0  0  0  0
  -15.7193   -1.6894    4.5433 H   0  0  0  0  0  0  0  0  0  0  0  0
  -14.2385   -1.1564    2.5290 H   0  0  0  0  0  0  0  0  0  0  0  0
  -12.0635   -1.9891    4.2219 H   0  0  0  0  0  0  0  0  0  0  0  0
  -12.0516   -1.0493    2.7466 H   0  0  0  0  0  0  0  0  0  0  0  0
  -12.9102    0.9374    4.0016 H   0  0  0  0  0  0  0  0  0  0  0  0
  -11.3642    0.3618    4.5438 H   0  0  0  0  0  0  0  0  0  0  0  0
  -10.3950    0.4647    6.5196 H   0  0  0  0  0  0  0  0  0  0  0  0
  -12.1130   -1.9785    7.1569 H   0  0  0  0  0  0  0  0  0  0  0  0
  -10.5374   -2.1298    8.6743 H   0  0  0  0  0  0  0  0  0  0  0  0
   -9.6505   -3.0794    6.2220 H   0  0  0  0  0  0  0  0  0  0  0  0
   -7.3201   -3.7222    5.7277 H   0  0  0  0  0  0  0  0  0  0  0  0
   -8.2521   -0.0101    8.9471 H   0  0  0  0  0  0  0  0  0  0  0  0
   -3.7644   -1.4738    8.4876 H   0  0  0  0  0  0  0  0  0  0  0  0
   -4.1780   -0.5128    7.1034 H   0  0  0  0  0  0  0  0  0  0  0  0
   -4.7204   -2.9603    6.2280 H   0  0  0  0  0  0  0  0  0  0  0  0
   -5.0760   -3.4393    7.7123 H   0  0  0  0  0  0  0  0  0  0  0  0
  -13.3146    0.8878   11.1535 H   0  0  0  0  0  0  0  0  0  0  0  0
  -12.4156    2.7409   12.4864 H   0  0  0  0  0  0  0  0  0  0  0  0
  1  2  1  0
  2  3  2  0
  2  4  2  0
  2  5  1  0
  5  6  2  0
  6  7  1  0
  7  8  2  0
  8  9  1  0
  9 10  1  0
  9 11  1  0
 11 12  1  0
 12 13  1  0
 13 14  1  0
 14 15  1  0
 15 16  1  0
 16 17  1  0
 17 18  1  0
 18 19  1  0
 19 20  1  0
 20 21  1  0
 20 22  1  0
 22 23  1  0
 23 24  1  0
 24 25  2  0
 25 26  1  0
 26 27  2  0
 27 28  1  0
 28 29  2  0
 28 30  1  0
 30 31  1  0
 31 32  1  0
  8 33  1  0
 33 34  2  0
 34  5  1  0
 20  9  1  0
 29 24  1  0
 19 14  1  0
 32 27  1  0
  1 35  1  0
  1 36  1  0
  1 37  1  0
  6 38  1  0
  7 39  1  0
 10 40  1  0
 11 41  1  0
 11 42  1  0
 12 43  1  0
 12 44  1  0
 13 45  1  0
 14 46  1  0
 15 47  1  0
 15 48  1  0
 16 49  1  0
 17 50  1  0
 17 51  1  0
 18 52  1  0
 18 53  1  0
 21 54  1  0
 22 55  1  0
 23 56  1  0
 25 57  1  0
 26 58  1  0
 29 59  1  0
 31 60  1  0
 31 61  1  0
 32 62  1  0
 32 63  1  0
 33 64  1  0
 34 65  1  0
M  END
>  <Energy>  (307) 
202.3800003960522

>  <compound_id>  (307) 
2537

>  <target_id>  (307) 
1

>  <reference_id>  (307) 
37

>  <inspiration_ids>  (307) 
[169, 37]

>  <energy_score>  (307) 
-61.35972450046802

>  <distance_score>  (307) 
1.308051787740409

>  <path>  (307) 
/opt/xchem-fragalysis-2/maxwin/BulkDock/SCRATCH/505736/C2537-P37/C2537-P37.minimised.mol

>  <scratch_subdir>  (307) 
/opt/xchem-fragalysis-2/maxwin/BulkDock/SCRATCH/505736/C2537-P37

>  <fragmenstein_runtime>  (307) 
4.575345516204834

>  <fragmenstein_outcome>  (307) 
too moved

>  <fragmenstein_mode>  (307) 
expansion

>  <fragmenstein_error>  (307) 


$$$$
C2538-P169
     RDKit          3D

 30 32  0  0  0  0  0  0  0  0999 V2000
   -7.3143   -0.1957    8.9288 C   0  0  0  0  0  0  0  0  0  0  0  0
   -8.4625    0.0393    9.5117 N   0  0  0  0  0  0  0  0  0  0  0  0
   -9.3935   -0.7462    8.8992 N   0  0  0  0  0  0  0  0  0  0  0  0
   -8.7779   -1.4310    7.9626 C   0  0  0  0  0  0  0  0  0  0  0  0
   -7.4550   -1.0698    7.9005 N   0  0  0  0  0  0  0  0  0  0  0  0
   -6.5713   -1.2938    6.7455 C   0  0  0  0  0  0  0  0  0  0  0  0
   -7.1894   -2.4108    5.8406 C   0  0  0  0  0  0  0  0  0  0  0  0
   -8.7054   -2.3166    5.6875 C   0  0  0  0  0  0  0  0  0  0  0  0
   -9.3729   -2.4165    7.0479 C   0  0  0  0  0  0  0  0  0  0  0  0
   -6.4373    0.0317    5.9686 C   0  0  0  0  0  0  0  0  0  0  0  0
   -5.5349    1.0525    6.6724 C   0  0  0  0  0  0  0  0  0  0  0  0
   -4.2388    0.5256    7.0762 N   0  0  0  0  0  0  0  0  0  0  0  0
   -4.2598   -0.7544    7.7643 C   0  0  0  0  0  0  0  0  0  0  0  0
   -5.1276   -1.7660    7.0342 C   0  0  0  0  0  0  0  0  0  0  0  0
   -6.3925    0.2730    9.1885 H   0  0  0  0  0  0  0  0  0  0  0  0
   -6.7251   -2.3955    4.8464 H   0  0  0  0  0  0  0  0  0  0  0  0
   -6.9608   -3.3979    6.2681 H   0  0  0  0  0  0  0  0  0  0  0  0
   -8.9725   -1.3723    5.1973 H   0  0  0  0  0  0  0  0  0  0  0  0
   -9.0651   -3.1250    5.0408 H   0  0  0  0  0  0  0  0  0  0  0  0
  -10.4504   -2.2493    6.9460 H   0  0  0  0  0  0  0  0  0  0  0  0
   -9.2320   -3.4231    7.4574 H   0  0  0  0  0  0  0  0  0  0  0  0
   -6.0093   -0.1677    4.9762 H   0  0  0  0  0  0  0  0  0  0  0  0
   -7.4195    0.4874    5.7894 H   0  0  0  0  0  0  0  0  0  0  0  0
   -6.0412    1.5200    7.5191 H   0  0  0  0  0  0  0  0  0  0  0  0
   -5.3677    1.8785    5.9729 H   0  0  0  0  0  0  0  0  0  0  0  0
   -3.7420    1.2153    7.6435 H   0  0  0  0  0  0  0  0  0  0  0  0
   -4.5698   -0.6368    8.8042 H   0  0  0  0  0  0  0  0  0  0  0  0
   -3.2335   -1.1379    7.8064 H   0  0  0  0  0  0  0  0  0  0  0  0
   -4.6325   -1.9861    6.0755 H   0  0  0  0  0  0  0  0  0  0  0  0
   -5.1396   -2.7195    7.5548 H   0  0  0  0  0  0  0  0  0  0  0  0
  1  2  2  0
  2  3  1  0
  3  4  2  0
  4  5  1  0
  5  6  1  0
  6  7  1  0
  7  8  1  0
  8  9  1  0
  6 10  1  0
 10 11  1  0
 11 12  1  0
 12 13  1  0
 13 14  1  0
  5  1  1  0
 14  6  1  0
  9  4  1  0
  1 15  1  0
  7 16  1  0
  7 17  1  0
  8 18  1  0
  8 19  1  0
  9 20  1  0
  9 21  1  0
 10 22  1  0
 10 23  1  0
 11 24  1  0
 11 25  1  0
 12 26  1  0
 13 27  1  0
 13 28  1  0
 14 29  1  0
 14 30  1  0
M  END
>  <Energy>  (308) 
1.4797251653786816

>  <compound_id>  (308) 
2538

>  <target_id>  (308) 
1

>  <reference_id>  (308) 
169

>  <inspiration_ids>  (308) 
[169, 65]

>  <energy_score>  (308) 
-19.430676227422055

>  <distance_score>  (308) 
1.7607195019740087

>  <path>  (308) 
/opt/xchem-fragalysis-2/maxwin/BulkDock/SCRATCH/505736/C2538-P169/C2538-P169.minimised.mol

>  <scratch_subdir>  (308) 
/opt/xchem-fragalysis-2/maxwin/BulkDock/SCRATCH/505736/C2538-P169

>  <fragmenstein_runtime>  (308) 
1.343064308166504

>  <fragmenstein_outcome>  (308) 
too moved

>  <fragmenstein_mode>  (308) 
expansion

>  <fragmenstein_error>  (308) 


$$$$
C2538-P65
     RDKit          3D

 30 32  0  0  0  0  0  0  0  0999 V2000
   -6.8911    1.4955    6.6750 C   0  0  0  0  0  0  0  0  0  0  0  0
   -7.8545    2.2727    7.1107 N   0  0  0  0  0  0  0  0  0  0  0  0
   -8.8750    1.4620    7.5512 N   0  0  0  0  0  0  0  0  0  0  0  0
   -8.5068    0.2094    7.3746 C   0  0  0  0  0  0  0  0  0  0  0  0
   -7.2636    0.1927    6.7930 N   0  0  0  0  0  0  0  0  0  0  0  0
   -6.4931   -1.0234    6.5135 C   0  0  0  0  0  0  0  0  0  0  0  0
   -7.5068   -2.1884    6.2871 C   0  0  0  0  0  0  0  0  0  0  0  0
   -8.5386   -2.3075    7.4124 C   0  0  0  0  0  0  0  0  0  0  0  0
   -9.3121   -1.0119    7.6400 C   0  0  0  0  0  0  0  0  0  0  0  0
   -5.6235   -1.3336    7.7375 C   0  0  0  0  0  0  0  0  0  0  0  0
   -4.3771   -0.4618    7.8305 C   0  0  0  0  0  0  0  0  0  0  0  0
   -3.5594   -0.4845    6.6254 N   0  0  0  0  0  0  0  0  0  0  0  0
   -4.1303   -1.2787    5.5485 C   0  0  0  0  0  0  0  0  0  0  0  0
   -5.5840   -0.9044    5.2595 C   0  0  0  0  0  0  0  0  0  0  0  0
   -5.9360    1.8268    6.2952 H   0  0  0  0  0  0  0  0  0  0  0  0
   -8.0485   -2.0274    5.3445 H   0  0  0  0  0  0  0  0  0  0  0  0
   -6.9738   -3.1420    6.1822 H   0  0  0  0  0  0  0  0  0  0  0  0
   -9.2413   -3.1190    7.1892 H   0  0  0  0  0  0  0  0  0  0  0  0
   -8.0397   -2.5942    8.3393 H   0  0  0  0  0  0  0  0  0  0  0  0
  -10.1786   -0.9947    6.9673 H   0  0  0  0  0  0  0  0  0  0  0  0
   -9.7048   -0.9876    8.6625 H   0  0  0  0  0  0  0  0  0  0  0  0
   -5.3009   -2.3776    7.6655 H   0  0  0  0  0  0  0  0  0  0  0  0
   -6.2021   -1.2434    8.6578 H   0  0  0  0  0  0  0  0  0  0  0  0
   -4.6314    0.5819    8.0208 H   0  0  0  0  0  0  0  0  0  0  0  0
   -3.7703   -0.7961    8.6787 H   0  0  0  0  0  0  0  0  0  0  0  0
   -2.6404   -0.8631    6.8745 H   0  0  0  0  0  0  0  0  0  0  0  0
   -4.0583   -2.3486    5.7772 H   0  0  0  0  0  0  0  0  0  0  0  0
   -3.5373   -1.1207    4.6409 H   0  0  0  0  0  0  0  0  0  0  0  0
   -5.6068    0.1049    4.8326 H   0  0  0  0  0  0  0  0  0  0  0  0
   -5.9472   -1.5567    4.4548 H   0  0  0  0  0  0  0  0  0  0  0  0
  1  2  2  0
  2  3  1  0
  3  4  2  0
  4  5  1  0
  5  6  1  0
  6  7  1  0
  7  8  1  0
  8  9  1  0
  6 10  1  0
 10 11  1  0
 11 12  1  0
 12 13  1  0
 13 14  1  0
  5  1  1  0
 14  6  1  0
  9  4  1  0
  1 15  1  0
  7 16  1  0
  7 17  1  0
  8 18  1  0
  8 19  1  0
  9 20  1  0
  9 21  1  0
 10 22  1  0
 10 23  1  0
 11 24  1  0
 11 25  1  0
 12 26  1  0
 13 27  1  0
 13 28  1  0
 14 29  1  0
 14 30  1  0
M  END
>  <Energy>  (309) 
1.9973870189217982

>  <compound_id>  (309) 
2538

>  <target_id>  (309) 
1

>  <reference_id>  (309) 
65

>  <inspiration_ids>  (309) 
[169, 65]

>  <energy_score>  (309) 
-18.913014373877928

>  <distance_score>  (309) 
1.4426503140791567

>  <path>  (309) 
/opt/xchem-fragalysis-2/maxwin/BulkDock/SCRATCH/505736/C2538-P65/C2538-P65.minimised.mol

>  <scratch_subdir>  (309) 
/opt/xchem-fragalysis-2/maxwin/BulkDock/SCRATCH/505736/C2538-P65

>  <fragmenstein_runtime>  (309) 
1.5827276706695557

>  <fragmenstein_outcome>  (309) 
too moved

>  <fragmenstein_mode>  (309) 
expansion

>  <fragmenstein_error>  (309) 


$$$$
C2546-P169
     RDKit          3D

 50 52  0  0  0  0  0  0  0  0999 V2000
  -10.7391    1.6147    5.0155 C   0  0  0  0  0  0  0  0  0  0  0  0
  -11.3650    0.3012    4.5930 C   0  0  0  0  0  0  0  0  0  0  0  0
  -11.7677   -0.5458    5.7012 N   0  0  0  0  0  0  0  0  0  0  0  0
  -12.9788   -0.0967    6.4100 C   0  0  0  0  0  0  0  0  0  0  0  0
  -12.7214    0.2975    7.9093 C   0  0  0  0  0  0  0  0  0  0  0  0
  -11.9062   -0.7240    8.5691 N   0  0  0  0  0  0  0  0  0  0  0  0
  -10.5914   -0.2401    8.7203 N   0  0  0  0  0  0  0  0  0  0  0  0
   -9.7519   -1.2711    9.0481 N   0  0  0  0  0  0  0  0  0  0  0  0
   -8.6004   -1.4532    8.2291 C   0  0  0  0  0  0  0  0  0  0  0  0
   -8.4523   -2.6576    7.5037 C   0  0  0  0  0  0  0  0  0  0  0  0
   -7.2948   -2.9244    6.7686 C   0  0  0  0  0  0  0  0  0  0  0  0
   -6.2792   -1.9889    6.8024 C   0  0  0  0  0  0  0  0  0  0  0  0
   -6.4302   -0.7902    7.4831 C   0  0  0  0  0  0  0  0  0  0  0  0
   -7.5806   -0.4778    8.1871 C   0  0  0  0  0  0  0  0  0  0  0  0
   -7.7888    0.8103    8.6846 N   0  0  0  0  0  0  0  0  0  0  0  0
   -5.3232    0.0245    7.4143 O   0  0  0  0  0  0  0  0  0  0  0  0
   -4.3041   -0.8432    6.8781 C   0  0  0  0  0  0  0  0  0  0  0  0
   -4.9552   -2.0192    6.1539 C   0  0  0  0  0  0  0  0  0  0  0  0
  -10.5838    0.7938    9.7403 O   0  0  0  0  0  0  0  0  0  0  0  0
  -11.4380    1.8750    9.3089 C   0  0  0  0  0  0  0  0  0  0  0  0
  -10.5249    3.1284    9.1555 C   0  0  0  0  0  0  0  0  0  0  0  0
   -9.9135    3.1939    7.8579 O   0  0  0  0  0  0  0  0  0  0  0  0
  -12.5288    2.0830   10.3829 C   0  0  0  0  0  0  0  0  0  0  0  0
  -11.9378    2.8164   11.8991 Cl  0  0  0  0  0  0  0  0  0  0  0  0
  -12.0595    1.6158    7.9688 N   0  0  0  0  0  0  0  0  0  0  0  0
   -9.9166    1.4609    5.7202 H   0  0  0  0  0  0  0  0  0  0  0  0
  -11.4814    2.2964    5.4367 H   0  0  0  0  0  0  0  0  0  0  0  0
  -10.3172    2.1162    4.1372 H   0  0  0  0  0  0  0  0  0  0  0  0
  -12.2057    0.4789    3.9121 H   0  0  0  0  0  0  0  0  0  0  0  0
  -10.6219   -0.2557    4.0102 H   0  0  0  0  0  0  0  0  0  0  0  0
  -10.9900   -0.6272    6.3668 H   0  0  0  0  0  0  0  0  0  0  0  0
  -13.4865    0.7249    5.8891 H   0  0  0  0  0  0  0  0  0  0  0  0
  -13.6797   -0.9411    6.4032 H   0  0  0  0  0  0  0  0  0  0  0  0
  -13.6951    0.3572    8.4085 H   0  0  0  0  0  0  0  0  0  0  0  0
  -11.9068   -1.5589    7.9776 H   0  0  0  0  0  0  0  0  0  0  0  0
  -10.2421   -2.1613    9.1914 H   0  0  0  0  0  0  0  0  0  0  0  0
   -9.2477   -3.3980    7.5175 H   0  0  0  0  0  0  0  0  0  0  0  0
   -7.1962   -3.8539    6.2163 H   0  0  0  0  0  0  0  0  0  0  0  0
   -6.9502    1.3226    8.9108 H   0  0  0  0  0  0  0  0  0  0  0  0
   -8.5129    0.8169    9.4013 H   0  0  0  0  0  0  0  0  0  0  0  0
   -3.6695   -1.1812    7.7071 H   0  0  0  0  0  0  0  0  0  0  0  0
   -3.6902   -0.2667    6.1863 H   0  0  0  0  0  0  0  0  0  0  0  0
   -5.0468   -1.8256    5.0805 H   0  0  0  0  0  0  0  0  0  0  0  0
   -4.4109   -2.9503    6.3239 H   0  0  0  0  0  0  0  0  0  0  0  0
   -9.7148    3.1231    9.8902 H   0  0  0  0  0  0  0  0  0  0  0  0
  -11.1013    4.0533    9.2688 H   0  0  0  0  0  0  0  0  0  0  0  0
  -10.6445    3.3403    7.2329 H   0  0  0  0  0  0  0  0  0  0  0  0
  -13.3116    2.7528   10.0119 H   0  0  0  0  0  0  0  0  0  0  0  0
  -12.9933    1.1332   10.6661 H   0  0  0  0  0  0  0  0  0  0  0  0
  -11.2149    1.4461    7.4129 H   0  0  0  0  0  0  0  0  0  0  0  0
  1  2  1  0
  2  3  1  0
  3  4  1  0
  4  5  1  0
  5  6  1  0
  6  7  1  0
  7  8  1  0
  8  9  1  0
  9 10  2  0
 10 11  1  0
 11 12  2  0
 12 13  1  0
 13 14  2  0
 14 15  1  0
 13 16  1  0
 16 17  1  0
 17 18  1  0
  7 19  1  0
 19 20  1  0
 20 21  1  0
 21 22  1  0
 20 23  1  0
 23 24  1  0
 20 25  1  0
 25  5  1  0
 14  9  1  0
 18 12  1  0
  1 26  1  0
  1 27  1  0
  1 28  1  0
  2 29  1  0
  2 30  1  0
  3 31  1  0
  4 32  1  0
  4 33  1  0
  5 34  1  0
  6 35  1  0
  8 36  1  0
 10 37  1  0
 11 38  1  0
 15 39  1  0
 15 40  1  0
 17 41  1  0
 17 42  1  0
 18 43  1  0
 18 44  1  0
 21 45  1  0
 21 46  1  0
 22 47  1  0
 23 48  1  0
 23 49  1  0
 25 50  1  0
M  END
>  <Energy>  (310) 
77.16875668148748

>  <compound_id>  (310) 
2546

>  <target_id>  (310) 
1

>  <reference_id>  (310) 
169

>  <inspiration_ids>  (310) 
[169, 126]

>  <energy_score>  (310) 
-45.64327595720431

>  <distance_score>  (310) 
0.9119470178555718

>  <path>  (310) 
/opt/xchem-fragalysis-2/maxwin/BulkDock/SCRATCH/505736/C2546-P169/C2546-P169.minimised.mol

>  <scratch_subdir>  (310) 
/opt/xchem-fragalysis-2/maxwin/BulkDock/SCRATCH/505736/C2546-P169

>  <fragmenstein_runtime>  (310) 
7.233699321746826

>  <fragmenstein_outcome>  (310) 
acceptable

>  <fragmenstein_mode>  (310) 
expansion

>  <fragmenstein_error>  (310) 


$$$$
C2546-P126
     RDKit          3D

 50 52  0  0  0  0  0  0  0  0999 V2000
  -10.6739    1.1437    5.2105 C   0  0  0  0  0  0  0  0  0  0  0  0
  -11.6021    0.1466    4.5398 C   0  0  0  0  0  0  0  0  0  0  0  0
  -12.3248   -0.7509    5.4353 N   0  0  0  0  0  0  0  0  0  0  0  0
  -13.3054   -0.0756    6.3078 C   0  0  0  0  0  0  0  0  0  0  0  0
  -12.7982    0.2338    7.7652 C   0  0  0  0  0  0  0  0  0  0  0  0
  -11.4352   -0.2077    7.9101 N   0  0  0  0  0  0  0  0  0  0  0  0
  -11.0751   -0.2796    9.2611 N   0  0  0  0  0  0  0  0  0  0  0  0
   -9.7091   -0.3377    9.4366 N   0  0  0  0  0  0  0  0  0  0  0  0
   -8.7962   -0.8192    8.4565 C   0  0  0  0  0  0  0  0  0  0  0  0
   -8.8890   -2.0976    7.8787 C   0  0  0  0  0  0  0  0  0  0  0  0
   -7.7814   -2.6989    7.2993 C   0  0  0  0  0  0  0  0  0  0  0  0
   -6.6026   -1.9933    7.3565 C   0  0  0  0  0  0  0  0  0  0  0  0
   -6.5625   -0.6656    7.7364 C   0  0  0  0  0  0  0  0  0  0  0  0
   -7.6714   -0.0194    8.2092 C   0  0  0  0  0  0  0  0  0  0  0  0
   -7.5948    1.3018    8.6921 N   0  0  0  0  0  0  0  0  0  0  0  0
   -5.3153   -0.1006    7.6976 O   0  0  0  0  0  0  0  0  0  0  0  0
   -4.4717   -1.2683    7.7328 C   0  0  0  0  0  0  0  0  0  0  0  0
   -5.2356   -2.4704    7.1361 C   0  0  0  0  0  0  0  0  0  0  0  0
  -11.5648    0.8687   10.0276 O   0  0  0  0  0  0  0  0  0  0  0  0
  -11.8678    1.9951    9.1772 C   0  0  0  0  0  0  0  0  0  0  0  0
  -10.5566    2.6151    8.5830 C   0  0  0  0  0  0  0  0  0  0  0  0
  -10.8306    3.7084    7.7057 O   0  0  0  0  0  0  0  0  0  0  0  0
  -12.5895    3.0354   10.0675 C   0  0  0  0  0  0  0  0  0  0  0  0
  -11.5948    3.6492   11.4300 Cl  0  0  0  0  0  0  0  0  0  0  0  0
  -12.8457    1.6631    8.0875 N   0  0  0  0  0  0  0  0  0  0  0  0
   -9.9564    0.6510    5.8704 H   0  0  0  0  0  0  0  0  0  0  0  0
  -11.2265    1.9081    5.7518 H   0  0  0  0  0  0  0  0  0  0  0  0
  -10.0902    1.6662    4.4440 H   0  0  0  0  0  0  0  0  0  0  0  0
  -12.3070    0.6767    3.8881 H   0  0  0  0  0  0  0  0  0  0  0  0
  -10.9910   -0.4793    3.8786 H   0  0  0  0  0  0  0  0  0  0  0  0
  -12.7847   -1.4845    4.8912 H   0  0  0  0  0  0  0  0  0  0  0  0
  -13.7202    0.8170    5.8223 H   0  0  0  0  0  0  0  0  0  0  0  0
  -14.1554   -0.7633    6.4139 H   0  0  0  0  0  0  0  0  0  0  0  0
  -13.4616   -0.3094    8.4533 H   0  0  0  0  0  0  0  0  0  0  0  0
  -11.3460   -1.1137    7.4451 H   0  0  0  0  0  0  0  0  0  0  0  0
   -9.3572    0.5737    9.7192 H   0  0  0  0  0  0  0  0  0  0  0  0
   -9.7978   -2.6722    7.9665 H   0  0  0  0  0  0  0  0  0  0  0  0
   -7.8284   -3.7245    6.9498 H   0  0  0  0  0  0  0  0  0  0  0  0
   -6.8233    1.7761    8.2284 H   0  0  0  0  0  0  0  0  0  0  0  0
   -7.4079    1.2982    9.6948 H   0  0  0  0  0  0  0  0  0  0  0  0
   -4.2151   -1.4170    8.7830 H   0  0  0  0  0  0  0  0  0  0  0  0
   -3.5273   -1.0375    7.2467 H   0  0  0  0  0  0  0  0  0  0  0  0
   -5.1598   -2.7084    6.0938 H   0  0  0  0  0  0  0  0  0  0  0  0
   -4.9705   -3.4119    7.5950 H   0  0  0  0  0  0  0  0  0  0  0  0
  -10.0127    1.8920    7.9794 H   0  0  0  0  0  0  0  0  0  0  0  0
   -9.8744    2.9510    9.3693 H   0  0  0  0  0  0  0  0  0  0  0  0
   -9.9745    3.9386    7.3024 H   0  0  0  0  0  0  0  0  0  0  0  0
  -12.9050    3.9116    9.4912 H   0  0  0  0  0  0  0  0  0  0  0  0
  -13.4776    2.5912   10.5307 H   0  0  0  0  0  0  0  0  0  0  0  0
  -12.5165    2.1815    7.2747 H   0  0  0  0  0  0  0  0  0  0  0  0
  1  2  1  0
  2  3  1  0
  3  4  1  0
  4  5  1  0
  5  6  1  0
  6  7  1  0
  7  8  1  0
  8  9  1  0
  9 10  2  0
 10 11  1  0
 11 12  2  0
 12 13  1  0
 13 14  2  0
 14 15  1  0
 13 16  1  0
 16 17  1  0
 17 18  1  0
  7 19  1  0
 19 20  1  0
 20 21  1  0
 21 22  1  0
 20 23  1  0
 23 24  1  0
 20 25  1  0
 25  5  1  0
 14  9  1  0
 18 12  1  0
  1 26  1  0
  1 27  1  0
  1 28  1  0
  2 29  1  0
  2 30  1  0
  3 31  1  0
  4 32  1  0
  4 33  1  0
  5 34  1  0
  6 35  1  0
  8 36  1  0
 10 37  1  0
 11 38  1  0
 15 39  1  0
 15 40  1  0
 17 41  1  0
 17 42  1  0
 18 43  1  0
 18 44  1  0
 21 45  1  0
 21 46  1  0
 22 47  1  0
 23 48  1  0
 23 49  1  0
 25 50  1  0
M  END
>  <Energy>  (311) 
94.360415790142014

>  <compound_id>  (311) 
2546

>  <target_id>  (311) 
1

>  <reference_id>  (311) 
126

>  <inspiration_ids>  (311) 
[169, 126]

>  <energy_score>  (311) 
-28.45161684855327

>  <distance_score>  (311) 
1.1125329302922524

>  <path>  (311) 
/opt/xchem-fragalysis-2/maxwin/BulkDock/SCRATCH/505736/C2546-P126/C2546-P126.minimised.mol

>  <scratch_subdir>  (311) 
/opt/xchem-fragalysis-2/maxwin/BulkDock/SCRATCH/505736/C2546-P126

>  <fragmenstein_runtime>  (311) 
6.623471975326538

>  <fragmenstein_outcome>  (311) 
too moved

>  <fragmenstein_mode>  (311) 
expansion

>  <fragmenstein_error>  (311) 


$$$$
C2549-P169
     RDKit          3D

 30 31  0  0  0  0  0  0  0  0999 V2000
   -7.7787    1.2242    8.6920 C   0  0  0  0  0  0  0  0  0  0  0  0
   -7.5589   -0.1525    8.1892 C   0  0  0  0  0  0  0  0  0  0  0  0
   -8.5515   -1.1350    8.2711 C   0  0  0  0  0  0  0  0  0  0  0  0
   -9.5363   -1.0181    9.2225 O   0  0  0  0  0  0  0  0  0  0  0  0
  -10.9438   -0.2641    8.9149 S   0  0  0  0  0  0  0  0  0  0  0  0
  -10.6824    1.1571    8.7835 O   0  0  0  0  0  0  0  0  0  0  0  0
  -11.8778   -0.7001    9.9408 O   0  0  0  0  0  0  0  0  0  0  0  0
  -11.3644   -0.8570    7.4616 O   0  0  0  0  0  0  0  0  0  0  0  0
  -12.9501   -0.9408    7.2836 S   0  0  0  0  0  4  0  0  0  0  0  0
  -13.2998   -0.0733    6.1128 O   0  0  0  0  0  0  0  0  0  0  0  0
   -8.4100   -2.3582    7.5975 C   0  0  0  0  0  0  0  0  0  0  0  0
   -7.2549   -2.6222    6.8544 C   0  0  0  0  0  0  0  0  0  0  0  0
   -6.2322   -1.6845    6.8828 C   0  0  0  0  0  0  0  0  0  0  0  0
   -6.3774   -0.4787    7.5492 C   0  0  0  0  0  0  0  0  0  0  0  0
   -5.0857    0.2705    7.4964 C   0  0  0  0  0  0  0  0  0  0  0  0
   -4.3127   -0.3693    6.4294 N   0  0  0  0  0  0  0  0  0  0  0  0
   -4.8546   -1.7081    6.3246 C   0  0  0  0  0  0  0  0  0  0  0  0
   -4.0350   -2.6148    6.9916 O   0  0  0  0  0  0  0  0  0  0  0  0
   -4.8662   -2.0211    4.9782 O   0  0  0  0  0  0  0  0  0  0  0  0
   -6.8682    1.8156    8.6810 H   0  0  0  0  0  0  0  0  0  0  0  0
   -8.4629    1.7524    8.0210 H   0  0  0  0  0  0  0  0  0  0  0  0
   -8.1976    1.1978    9.6980 H   0  0  0  0  0  0  0  0  0  0  0  0
  -13.0471   -2.1502    6.6803 H   0  0  0  0  0  0  0  0  0  0  0  0
   -9.1760   -3.1249    7.6874 H   0  0  0  0  0  0  0  0  0  0  0  0
   -7.1378   -3.5653    6.3275 H   0  0  0  0  0  0  0  0  0  0  0  0
   -5.2244    1.3299    7.2623 H   0  0  0  0  0  0  0  0  0  0  0  0
   -4.5541    0.1736    8.4489 H   0  0  0  0  0  0  0  0  0  0  0  0
   -4.6142    0.0893    5.5708 H   0  0  0  0  0  0  0  0  0  0  0  0
   -4.5977   -3.3780    7.1838 H   0  0  0  0  0  0  0  0  0  0  0  0
   -3.9903   -1.7120    4.7085 H   0  0  0  0  0  0  0  0  0  0  0  0
  1  2  1  0
  2  3  2  0
  3  4  1  0
  4  5  1  0
  5  6  2  0
  5  7  2  0
  5  8  1  0
  8  9  1  0
  9 10  2  0
  3 11  1  0
 11 12  2  0
 12 13  1  0
 13 14  2  0
 14 15  1  0
 15 16  1  0
 16 17  1  0
 17 18  1  0
 17 19  1  0
 14  2  1  0
 17 13  1  0
  1 20  1  0
  1 21  1  0
  1 22  1  0
  9 23  1  0
 11 24  1  0
 12 25  1  0
 15 26  1  0
 15 27  1  0
 16 28  1  0
 18 29  1  0
 19 30  1  0
M  END
>  <Energy>  (312) 
-133.3317431361929

>  <compound_id>  (312) 
2549

>  <target_id>  (312) 
1

>  <reference_id>  (312) 
169

>  <inspiration_ids>  (312) 
[169, 179]

>  <energy_score>  (312) 
-50.67736920308732

>  <distance_score>  (312) 
1.2924514571954773

>  <path>  (312) 
/opt/xchem-fragalysis-2/maxwin/BulkDock/SCRATCH/505736/C2549-P169/C2549-P169.minimised.mol

>  <scratch_subdir>  (312) 
/opt/xchem-fragalysis-2/maxwin/BulkDock/SCRATCH/505736/C2549-P169

>  <fragmenstein_runtime>  (312) 
3.210803508758545

>  <fragmenstein_outcome>  (312) 
too moved

>  <fragmenstein_mode>  (312) 
expansion

>  <fragmenstein_error>  (312) 


$$$$
C2549-P179
     RDKit          3D

 30 31  0  0  0  0  0  0  0  0999 V2000
   -7.7537    1.2030    8.4849 C   0  0  0  0  0  0  0  0  0  0  0  0
   -7.5868   -0.1944    8.0235 C   0  0  0  0  0  0  0  0  0  0  0  0
   -8.6152   -1.1356    8.1449 C   0  0  0  0  0  0  0  0  0  0  0  0
   -9.5543   -0.9734    9.1366 O   0  0  0  0  0  0  0  0  0  0  0  0
  -10.9589   -0.1995    8.8877 S   0  0  0  0  0  0  0  0  0  0  0  0
  -10.6745    1.2053    8.6613 O   0  0  0  0  0  0  0  0  0  0  0  0
  -11.8353   -0.5558    9.9929 O   0  0  0  0  0  0  0  0  0  0  0  0
  -11.4979   -0.8594    7.5067 O   0  0  0  0  0  0  0  0  0  0  0  0
  -13.0794   -0.6904    7.3594 S   0  0  0  0  0  4  0  0  0  0  0  0
  -13.3307   -0.1988    5.9659 O   0  0  0  0  0  0  0  0  0  0  0  0
   -8.5273   -2.3797    7.5045 C   0  0  0  0  0  0  0  0  0  0  0  0
   -7.3922   -2.7048    6.7579 C   0  0  0  0  0  0  0  0  0  0  0  0
   -6.3317   -1.8082    6.7555 C   0  0  0  0  0  0  0  0  0  0  0  0
   -6.4210   -0.5834    7.3897 C   0  0  0  0  0  0  0  0  0  0  0  0
   -5.1006    0.1088    7.3238 C   0  0  0  0  0  0  0  0  0  0  0  0
   -4.2960   -0.6424    6.3588 N   0  0  0  0  0  0  0  0  0  0  0  0
   -4.9678   -1.9086    6.1779 C   0  0  0  0  0  0  0  0  0  0  0  0
   -4.2219   -2.9433    6.7354 O   0  0  0  0  0  0  0  0  0  0  0  0
   -5.0476   -2.1254    4.8134 O   0  0  0  0  0  0  0  0  0  0  0  0
   -6.8178    1.7561    8.4607 H   0  0  0  0  0  0  0  0  0  0  0  0
   -8.4205    1.7361    7.7996 H   0  0  0  0  0  0  0  0  0  0  0  0
   -8.1801    1.2152    9.4876 H   0  0  0  0  0  0  0  0  0  0  0  0
  -13.4387   -1.9869    7.2003 H   0  0  0  0  0  0  0  0  0  0  0  0
   -9.3195   -3.1142    7.6231 H   0  0  0  0  0  0  0  0  0  0  0  0
   -7.3194   -3.6628    6.2498 H   0  0  0  0  0  0  0  0  0  0  0  0
   -5.1949    1.1498    7.0008 H   0  0  0  0  0  0  0  0  0  0  0  0
   -4.6120    0.0725    8.3025 H   0  0  0  0  0  0  0  0  0  0  0  0
   -4.4235   -0.1765    5.4614 H   0  0  0  0  0  0  0  0  0  0  0  0
   -4.8670   -3.5714    7.0858 H   0  0  0  0  0  0  0  0  0  0  0  0
   -4.1162   -2.2720    4.5997 H   0  0  0  0  0  0  0  0  0  0  0  0
  1  2  1  0
  2  3  2  0
  3  4  1  0
  4  5  1  0
  5  6  2  0
  5  7  2  0
  5  8  1  0
  8  9  1  0
  9 10  2  0
  3 11  1  0
 11 12  2  0
 12 13  1  0
 13 14  2  0
 14 15  1  0
 15 16  1  0
 16 17  1  0
 17 18  1  0
 17 19  1  0
 14  2  1  0
 17 13  1  0
  1 20  1  0
  1 21  1  0
  1 22  1  0
  9 23  1  0
 11 24  1  0
 12 25  1  0
 15 26  1  0
 15 27  1  0
 16 28  1  0
 18 29  1  0
 19 30  1  0
M  END
>  <Energy>  (313) 
-133.29665334555489

>  <compound_id>  (313) 
2549

>  <target_id>  (313) 
1

>  <reference_id>  (313) 
179

>  <inspiration_ids>  (313) 
[169, 179]

>  <energy_score>  (313) 
-50.64227941245154

>  <distance_score>  (313) 
1.3165304510430607

>  <path>  (313) 
/opt/xchem-fragalysis-2/maxwin/BulkDock/SCRATCH/505736/C2549-P179/C2549-P179.minimised.mol

>  <scratch_subdir>  (313) 
/opt/xchem-fragalysis-2/maxwin/BulkDock/SCRATCH/505736/C2549-P179

>  <fragmenstein_runtime>  (313) 
3.479508876800537

>  <fragmenstein_outcome>  (313) 
too moved

>  <fragmenstein_mode>  (313) 
expansion

>  <fragmenstein_error>  (313) 


$$$$
C2557-P171
     RDKit          3D

 54 56  0  0  0  0  0  0  0  0999 V2000
  -14.2341   -9.5607   42.1044 C   0  0  0  0  0  0  0  0  0  0  0  0
  -13.5752   -8.5657   41.2620 N   0  0  0  0  0  0  0  0  0  0  0  0
  -13.5102   -8.9347   39.8601 C   0  0  0  0  0  0  0  0  0  0  0  0
  -14.7344   -8.3391   39.1718 C   0  0  0  0  0  0  0  0  0  0  0  0
  -14.4398   -8.0509   37.6892 C   0  0  0  0  0  0  0  0  0  0  0  0
  -14.2578   -9.3169   36.8556 C   0  0  0  0  0  0  0  0  0  0  0  0
  -15.4554  -10.2438   36.9483 C   0  0  0  0  0  0  0  0  0  0  0  0
  -15.7743  -10.5802   38.3953 C   0  0  0  0  0  0  0  0  0  0  0  0
  -15.9516   -9.3094   39.2249 C   0  0  0  0  0  0  0  0  0  0  0  0
  -15.0066   -7.0798   40.0472 C   0  0  0  0  0  0  0  0  0  0  0  0
  -14.9465   -5.6580   39.3887 C   0  0  0  0  0  0  0  0  0  0  0  0
  -13.6121   -5.0304   38.9163 C   0  0  0  0  0  0  0  0  0  0  0  0
  -13.9016   -4.1707   37.7568 N   0  0  0  0  0  0  0  0  0  0  0  0
  -12.7287   -3.5200   36.7810 S   0  0  0  0  0  0  0  0  0  0  0  0
  -11.6312   -4.4450   36.6511 O   0  0  0  0  0  0  0  0  0  0  0  0
  -13.4196   -2.9536   35.6462 O   0  0  0  0  0  0  0  0  0  0  0  0
  -12.1939   -2.1974   37.6932 N   0  0  0  0  0  0  0  0  0  0  0  0
  -10.9686   -1.5671   37.0727 C   0  0  0  0  0  0  0  0  0  0  0  0
  -10.7187   -0.1489   37.6205 C   0  0  0  0  0  0  0  0  0  0  0  0
  -11.8163    0.8129   37.3977 N   0  0  0  0  0  0  0  0  0  0  0  0
  -13.0919    0.1142   37.2055 C   0  0  0  0  0  0  0  0  0  0  0  0
  -13.2334   -1.1743   38.0313 C   0  0  0  0  0  0  0  0  0  0  0  0
  -14.2395   -7.2581   41.3076 N   0  0  0  0  0  0  0  0  0  0  0  0
  -14.0159   -9.3351   43.1549 H   0  0  0  0  0  0  0  0  0  0  0  0
  -15.3211   -9.5808   42.0126 H   0  0  0  0  0  0  0  0  0  0  0  0
  -13.8406  -10.5653   41.9153 H   0  0  0  0  0  0  0  0  0  0  0  0
  -12.6292   -8.4323   39.4603 H   0  0  0  0  0  0  0  0  0  0  0  0
  -13.3601  -10.0060   39.6982 H   0  0  0  0  0  0  0  0  0  0  0  0
  -13.5365   -7.4486   37.5705 H   0  0  0  0  0  0  0  0  0  0  0  0
  -15.2614   -7.4717   37.2537 H   0  0  0  0  0  0  0  0  0  0  0  0
  -14.0872   -9.0432   35.8078 H   0  0  0  0  0  0  0  0  0  0  0  0
  -13.3707   -9.8651   37.1895 H   0  0  0  0  0  0  0  0  0  0  0  0
  -15.2570  -11.1650   36.3889 H   0  0  0  0  0  0  0  0  0  0  0  0
  -16.3259   -9.7695   36.4796 H   0  0  0  0  0  0  0  0  0  0  0  0
  -16.6976  -11.1700   38.4340 H   0  0  0  0  0  0  0  0  0  0  0  0
  -14.9858  -11.2115   38.8187 H   0  0  0  0  0  0  0  0  0  0  0  0
  -16.2202   -9.5927   40.2422 H   0  0  0  0  0  0  0  0  0  0  0  0
  -16.8316   -8.7757   38.8373 H   0  0  0  0  0  0  0  0  0  0  0  0
  -16.0546   -7.1474   40.3742 H   0  0  0  0  0  0  0  0  0  0  0  0
  -15.3851   -4.9511   40.1084 H   0  0  0  0  0  0  0  0  0  0  0  0
  -15.6606   -5.6701   38.5538 H   0  0  0  0  0  0  0  0  0  0  0  0
  -13.1935   -4.4207   39.7238 H   0  0  0  0  0  0  0  0  0  0  0  0
  -12.8781   -5.7929   38.6529 H   0  0  0  0  0  0  0  0  0  0  0  0
  -14.7831   -3.6712   37.7282 H   0  0  0  0  0  0  0  0  0  0  0  0
  -11.0707   -1.5191   35.9815 H   0  0  0  0  0  0  0  0  0  0  0  0
  -10.1036   -2.1957   37.3102 H   0  0  0  0  0  0  0  0  0  0  0  0
   -9.8052    0.2605   37.1761 H   0  0  0  0  0  0  0  0  0  0  0  0
  -10.5414   -0.2220   38.7013 H   0  0  0  0  0  0  0  0  0  0  0  0
  -11.8707    1.4323   38.2057 H   0  0  0  0  0  0  0  0  0  0  0  0
  -13.9068    0.8013   37.4597 H   0  0  0  0  0  0  0  0  0  0  0  0
  -13.2053   -0.1169   36.1394 H   0  0  0  0  0  0  0  0  0  0  0  0
  -13.1354   -0.9486   39.1006 H   0  0  0  0  0  0  0  0  0  0  0  0
  -14.2454   -1.5678   37.8986 H   0  0  0  0  0  0  0  0  0  0  0  0
  -13.5195   -6.5334   41.3763 H   0  0  0  0  0  0  0  0  0  0  0  0
  1  2  1  0
  2  3  1  0
  3  4  1  0
  4  5  1  0
  5  6  1  0
  6  7  1  0
  7  8  1  0
  8  9  1  0
  4 10  1  0
 10 11  1  0
 11 12  1  0
 12 13  1  0
 13 14  1  0
 14 15  2  0
 14 16  2  0
 14 17  1  0
 17 18  1  0
 18 19  1  0
 19 20  1  0
 20 21  1  0
 21 22  1  0
 10 23  1  0
 23  2  1  0
  9  4  1  0
 22 17  1  0
  1 24  1  0
  1 25  1  0
  1 26  1  0
  3 27  1  0
  3 28  1  0
  5 29  1  0
  5 30  1  0
  6 31  1  0
  6 32  1  0
  7 33  1  0
  7 34  1  0
  8 35  1  0
  8 36  1  0
  9 37  1  0
  9 38  1  0
 10 39  1  0
 11 40  1  0
 11 41  1  0
 12 42  1  0
 12 43  1  0
 13 44  1  0
 18 45  1  0
 18 46  1  0
 19 47  1  0
 19 48  1  0
 20 49  1  0
 21 50  1  0
 21 51  1  0
 22 52  1  0
 22 53  1  0
 23 54  1  0
M  END
>  <Energy>  (314) 
-55.880622495154789

>  <compound_id>  (314) 
2557

>  <target_id>  (314) 
1

>  <reference_id>  (314) 
171

>  <inspiration_ids>  (314) 
[171, 7]

>  <energy_score>  (314) 
-37.07495084792745

>  <distance_score>  (314) 
1.5159456363243269

>  <path>  (314) 
/opt/xchem-fragalysis-2/maxwin/BulkDock/SCRATCH/505736/C2557-P171/C2557-P171.minimised.mol

>  <scratch_subdir>  (314) 
/opt/xchem-fragalysis-2/maxwin/BulkDock/SCRATCH/505736/C2557-P171

>  <fragmenstein_runtime>  (314) 
7.887334108352661

>  <fragmenstein_outcome>  (314) 
too moved

>  <fragmenstein_mode>  (314) 
expansion

>  <fragmenstein_error>  (314) 


$$$$
C2557-P7
     RDKit          3D

 54 56  0  0  0  0  0  0  0  0999 V2000
  -13.9548   -9.3756   42.3757 C   0  0  0  0  0  0  0  0  0  0  0  0
  -13.7728   -8.2283   41.4795 N   0  0  0  0  0  0  0  0  0  0  0  0
  -13.5813   -8.6367   40.0937 C   0  0  0  0  0  0  0  0  0  0  0  0
  -14.9064   -8.3637   39.3733 C   0  0  0  0  0  0  0  0  0  0  0  0
  -14.6694   -8.1653   37.8696 C   0  0  0  0  0  0  0  0  0  0  0  0
  -15.7445   -8.7654   36.9801 C   0  0  0  0  0  0  0  0  0  0  0  0
  -15.7868  -10.2799   37.1421 C   0  0  0  0  0  0  0  0  0  0  0  0
  -15.5796  -10.7208   38.5882 C   0  0  0  0  0  0  0  0  0  0  0  0
  -15.8757   -9.5817   39.5644 C   0  0  0  0  0  0  0  0  0  0  0  0
  -15.4232   -7.1121   40.1478 C   0  0  0  0  0  0  0  0  0  0  0  0
  -15.2678   -5.6476   39.5523 C   0  0  0  0  0  0  0  0  0  0  0  0
  -13.9140   -4.9094   39.5950 C   0  0  0  0  0  0  0  0  0  0  0  0
  -13.7733   -3.9395   38.4434 N   0  0  0  0  0  0  0  0  0  0  0  0
  -12.2635   -3.2028   38.2472 S   0  0  0  0  0  0  0  0  0  0  0  0
  -11.7014   -2.9142   39.5420 O   0  0  0  0  0  0  0  0  0  0  0  0
  -11.5532   -3.9775   37.2613 O   0  0  0  0  0  0  0  0  0  0  0  0
  -12.6767   -1.7553   37.5107 N   0  0  0  0  0  0  0  0  0  0  0  0
  -11.5736   -1.1791   36.6678 C   0  0  0  0  0  0  0  0  0  0  0  0
  -11.4910    0.3559   36.7315 C   0  0  0  0  0  0  0  0  0  0  0  0
  -12.8040    0.9999   36.6118 N   0  0  0  0  0  0  0  0  0  0  0  0
  -13.7015    0.5294   37.6805 C   0  0  0  0  0  0  0  0  0  0  0  0
  -13.2935   -0.7591   38.4221 C   0  0  0  0  0  0  0  0  0  0  0  0
  -14.9214   -7.3205   41.5253 N   0  0  0  0  0  0  0  0  0  0  0  0
  -13.9156   -9.0241   43.4137 H   0  0  0  0  0  0  0  0  0  0  0  0
  -14.8995   -9.9074   42.2617 H   0  0  0  0  0  0  0  0  0  0  0  0
  -13.1321  -10.0907   42.2638 H   0  0  0  0  0  0  0  0  0  0  0  0
  -12.7879   -8.0035   39.6850 H   0  0  0  0  0  0  0  0  0  0  0  0
  -13.2294   -9.6686   39.9825 H   0  0  0  0  0  0  0  0  0  0  0  0
  -13.7294   -8.6521   37.5882 H   0  0  0  0  0  0  0  0  0  0  0  0
  -14.5839   -7.1129   37.6129 H   0  0  0  0  0  0  0  0  0  0  0  0
  -16.7199   -8.3273   37.2247 H   0  0  0  0  0  0  0  0  0  0  0  0
  -15.5530   -8.5234   35.9293 H   0  0  0  0  0  0  0  0  0  0  0  0
  -15.0197  -10.7482   36.5131 H   0  0  0  0  0  0  0  0  0  0  0  0
  -16.7514  -10.6485   36.7729 H   0  0  0  0  0  0  0  0  0  0  0  0
  -16.2288  -11.5773   38.8038 H   0  0  0  0  0  0  0  0  0  0  0  0
  -14.5510  -11.0747   38.7229 H   0  0  0  0  0  0  0  0  0  0  0  0
  -15.8658   -9.9800   40.5757 H   0  0  0  0  0  0  0  0  0  0  0  0
  -16.9121   -9.2544   39.4024 H   0  0  0  0  0  0  0  0  0  0  0  0
  -16.5146   -7.2174   40.2224 H   0  0  0  0  0  0  0  0  0  0  0  0
  -15.9700   -5.0148   40.1158 H   0  0  0  0  0  0  0  0  0  0  0  0
  -15.6751   -5.6433   38.5346 H   0  0  0  0  0  0  0  0  0  0  0  0
  -13.8609   -4.3311   40.5253 H   0  0  0  0  0  0  0  0  0  0  0  0
  -13.0969   -5.6269   39.6280 H   0  0  0  0  0  0  0  0  0  0  0  0
  -14.0750   -4.3083   37.5402 H   0  0  0  0  0  0  0  0  0  0  0  0
  -11.7674   -1.4941   35.6360 H   0  0  0  0  0  0  0  0  0  0  0  0
  -10.5968   -1.5791   36.9630 H   0  0  0  0  0  0  0  0  0  0  0  0
  -10.8430    0.7130   35.9240 H   0  0  0  0  0  0  0  0  0  0  0  0
  -11.0163    0.6658   37.6713 H   0  0  0  0  0  0  0  0  0  0  0  0
  -12.6966    2.0122   36.6817 H   0  0  0  0  0  0  0  0  0  0  0  0
  -13.8147    1.3264   38.4259 H   0  0  0  0  0  0  0  0  0  0  0  0
  -14.6951    0.3917   37.2422 H   0  0  0  0  0  0  0  0  0  0  0  0
  -12.5785   -0.4956   39.2116 H   0  0  0  0  0  0  0  0  0  0  0  0
  -14.1830   -1.1860   38.8981 H   0  0  0  0  0  0  0  0  0  0  0  0
  -14.6611   -6.4357   41.9652 H   0  0  0  0  0  0  0  0  0  0  0  0
  1  2  1  0
  2  3  1  0
  3  4  1  0
  4  5  1  0
  5  6  1  0
  6  7  1  0
  7  8  1  0
  8  9  1  0
  4 10  1  0
 10 11  1  0
 11 12  1  0
 12 13  1  0
 13 14  1  0
 14 15  2  0
 14 16  2  0
 14 17  1  0
 17 18  1  0
 18 19  1  0
 19 20  1  0
 20 21  1  0
 21 22  1  0
 10 23  1  0
 23  2  1  0
  9  4  1  0
 22 17  1  0
  1 24  1  0
  1 25  1  0
  1 26  1  0
  3 27  1  0
  3 28  1  0
  5 29  1  0
  5 30  1  0
  6 31  1  0
  6 32  1  0
  7 33  1  0
  7 34  1  0
  8 35  1  0
  8 36  1  0
  9 37  1  0
  9 38  1  0
 10 39  1  0
 11 40  1  0
 11 41  1  0
 12 42  1  0
 12 43  1  0
 13 44  1  0
 18 45  1  0
 18 46  1  0
 19 47  1  0
 19 48  1  0
 20 49  1  0
 21 50  1  0
 21 51  1  0
 22 52  1  0
 22 53  1  0
 23 54  1  0
M  END
>  <Energy>  (315) 
-49.288696658479978

>  <compound_id>  (315) 
2557

>  <target_id>  (315) 
1

>  <reference_id>  (315) 
7

>  <inspiration_ids>  (315) 
[171, 7]

>  <energy_score>  (315) 
-30.483025011253133

>  <distance_score>  (315) 
1.5855247024690284

>  <path>  (315) 
/opt/xchem-fragalysis-2/maxwin/BulkDock/SCRATCH/505736/C2557-P7/C2557-P7.minimised.mol

>  <scratch_subdir>  (315) 
/opt/xchem-fragalysis-2/maxwin/BulkDock/SCRATCH/505736/C2557-P7

>  <fragmenstein_runtime>  (315) 
7.822057247161865

>  <fragmenstein_outcome>  (315) 
too moved

>  <fragmenstein_mode>  (315) 
expansion

>  <fragmenstein_error>  (315) 


$$$$
C2558-P171
     RDKit          3D

 51 52  0  0  0  0  0  0  0  0999 V2000
  -14.8306  -12.0284   40.2902 C   0  0  0  0  0  0  0  0  0  0  0  0
  -15.0271  -10.9474   41.2899 C   0  0  0  0  0  0  0  0  0  0  0  0
  -15.8176  -11.0404   42.4173 C   0  0  0  0  0  0  0  0  0  0  0  0
  -15.7575   -9.8593   43.1026 N   0  0  0  0  0  0  0  0  0  0  0  0
  -16.5095   -9.6789   44.3250 N   0  0  0  0  0  0  0  0  0  0  0  0
  -15.6168   -9.5222   45.4837 C   0  0  0  0  0  0  0  0  0  0  0  0
  -17.4664   -8.5428   44.2186 C   0  0  0  0  0  0  0  0  0  0  0  0
  -18.7052   -8.8089   45.1117 C   0  0  0  0  0  0  0  0  0  0  0  0
  -18.8297  -10.2288   45.3556 N   0  0  0  0  0  0  0  0  0  0  0  0
  -19.4117   -7.8961   45.4355 O   0  0  0  0  0  0  0  0  0  0  0  0
  -14.9300   -8.9907   42.4344 C   0  0  0  0  0  0  0  0  0  0  0  0
  -14.6121   -7.6714   42.8591 C   0  0  0  0  0  0  0  0  0  0  0  0
  -14.3620   -6.5968   43.2158 N   0  0  0  0  0  0  0  0  0  0  0  0
  -14.4646   -9.6298   41.2899 C   0  0  0  0  0  0  0  0  0  0  0  0
  -13.5137   -9.0589   40.2746 C   0  0  0  0  0  0  0  0  0  0  0  0
  -14.1670   -8.6544   38.9528 C   0  0  0  0  0  0  0  0  0  0  0  0
  -14.1663   -9.8071   38.0084 N   0  0  0  0  0  0  0  0  0  0  0  0
  -15.0632   -9.5162   36.6235 S   0  0  0  0  0  0  0  0  0  0  0  0
  -16.4461   -9.4094   37.0120 O   0  0  0  0  0  0  0  0  0  0  0  0
  -14.3444   -8.5103   35.8835 O   0  0  0  0  0  0  0  0  0  0  0  0
  -14.8294  -11.0092   35.8772 N   0  0  0  0  0  0  0  0  0  0  0  0
  -14.8621  -10.9172   34.3788 C   0  0  0  0  0  0  0  0  0  0  0  0
  -15.2993  -12.2376   33.7353 C   0  0  0  0  0  0  0  0  0  0  0  0
  -16.6245  -12.6977   34.1650 N   0  0  0  0  0  0  0  0  0  0  0  0
  -16.9533  -12.2894   35.5346 C   0  0  0  0  0  0  0  0  0  0  0  0
  -15.7065  -12.1026   36.4093 C   0  0  0  0  0  0  0  0  0  0  0  0
  -13.9288  -11.8748   39.6953 H   0  0  0  0  0  0  0  0  0  0  0  0
  -14.7314  -12.9981   40.7897 H   0  0  0  0  0  0  0  0  0  0  0  0
  -15.6946  -12.0798   39.6240 H   0  0  0  0  0  0  0  0  0  0  0  0
  -16.4174  -11.8635   42.7815 H   0  0  0  0  0  0  0  0  0  0  0  0
  -15.0170   -8.6077   45.4434 H   0  0  0  0  0  0  0  0  0  0  0  0
  -16.1945   -9.5029   46.4142 H   0  0  0  0  0  0  0  0  0  0  0  0
  -14.9351  -10.3774   45.5566 H   0  0  0  0  0  0  0  0  0  0  0  0
  -17.0115   -7.5896   44.5088 H   0  0  0  0  0  0  0  0  0  0  0  0
  -17.8553   -8.4552   43.1961 H   0  0  0  0  0  0  0  0  0  0  0  0
  -18.0887  -10.7310   44.8218 H   0  0  0  0  0  0  0  0  0  0  0  0
  -17.9648  -10.7071   45.0243 H   0  0  0  0  0  0  0  0  0  0  0  0
  -13.0175   -8.1783   40.6998 H   0  0  0  0  0  0  0  0  0  0  0  0
  -12.7314   -9.8027   40.1069 H   0  0  0  0  0  0  0  0  0  0  0  0
  -13.5743   -7.8509   38.5000 H   0  0  0  0  0  0  0  0  0  0  0  0
  -15.1861   -8.2906   39.1219 H   0  0  0  0  0  0  0  0  0  0  0  0
  -13.2153  -10.0205   37.7088 H   0  0  0  0  0  0  0  0  0  0  0  0
  -13.8594  -10.6471   34.0361 H   0  0  0  0  0  0  0  0  0  0  0  0
  -15.5572  -10.1350   34.0594 H   0  0  0  0  0  0  0  0  0  0  0  0
  -15.3023  -12.1380   32.6461 H   0  0  0  0  0  0  0  0  0  0  0  0
  -14.5735  -13.0211   33.9820 H   0  0  0  0  0  0  0  0  0  0  0  0
  -17.3323  -12.3623   33.5187 H   0  0  0  0  0  0  0  0  0  0  0  0
  -17.6051  -13.0494   35.9777 H   0  0  0  0  0  0  0  0  0  0  0  0
  -17.5266  -11.3558   35.4972 H   0  0  0  0  0  0  0  0  0  0  0  0
  -16.0071  -11.9021   37.4403 H   0  0  0  0  0  0  0  0  0  0  0  0
  -15.1266  -13.0316   36.4421 H   0  0  0  0  0  0  0  0  0  0  0  0
  1  2  1  0
  2  3  2  0
  3  4  1  0
  4  5  1  0
  5  6  1  0
  5  7  1  0
  7  8  1  0
  8  9  1  0
  8 10  2  0
  4 11  1  0
 11 12  1  0
 12 13  3  0
 11 14  2  0
 14 15  1  0
 15 16  1  0
 16 17  1  0
 17 18  1  0
 18 19  2  0
 18 20  2  0
 18 21  1  0
 21 22  1  0
 22 23  1  0
 23 24  1  0
 24 25  1  0
 25 26  1  0
 14  2  1  0
 26 21  1  0
  1 27  1  0
  1 28  1  0
  1 29  1  0
  3 30  1  0
  6 31  1  0
  6 32  1  0
  6 33  1  0
  7 34  1  0
  7 35  1  0
  9 36  1  0
  9 37  1  0
 15 38  1  0
 15 39  1  0
 16 40  1  0
 16 41  1  0
 17 42  1  0
 22 43  1  0
 22 44  1  0
 23 45  1  0
 23 46  1  0
 24 47  1  0
 25 48  1  0
 25 49  1  0
 26 50  1  0
 26 51  1  0
M  END
>  <Energy>  (316) 
64.699451922652997

>  <compound_id>  (316) 
2558

>  <target_id>  (316) 
1

>  <reference_id>  (316) 
171

>  <inspiration_ids>  (316) 
[171, 185]

>  <energy_score>  (316) 
74.25822632462109

>  <distance_score>  (316) 
3.9926920527846033

>  <path>  (316) 
/opt/xchem-fragalysis-2/maxwin/BulkDock/SCRATCH/505736/C2558-P171/C2558-P171.minimised.mol

>  <scratch_subdir>  (316) 
/opt/xchem-fragalysis-2/maxwin/BulkDock/SCRATCH/505736/C2558-P171

>  <fragmenstein_runtime>  (316) 
6.360872507095337

>  <fragmenstein_outcome>  (316) 
too moved

>  <fragmenstein_mode>  (316) 
expansion

>  <fragmenstein_error>  (316) 


$$$$
C2558-P185
     RDKit          3D

 51 52  0  0  0  0  0  0  0  0999 V2000
  -13.2377  -11.2058   40.3867 C   0  0  0  0  0  0  0  0  0  0  0  0
  -14.1097  -10.3498   41.2178 C   0  0  0  0  0  0  0  0  0  0  0  0
  -14.9687  -10.8044   42.1951 C   0  0  0  0  0  0  0  0  0  0  0  0
  -15.6978   -9.7478   42.6606 N   0  0  0  0  0  0  0  0  0  0  0  0
  -16.8663   -9.9536   43.4458 N   0  0  0  0  0  0  0  0  0  0  0  0
  -16.8901   -9.2188   44.6999 C   0  0  0  0  0  0  0  0  0  0  0  0
  -18.1095   -9.8416   42.6685 C   0  0  0  0  0  0  0  0  0  0  0  0
  -18.5113  -11.2450   42.1315 C   0  0  0  0  0  0  0  0  0  0  0  0
  -17.9401  -11.5175   40.8231 N   0  0  0  0  0  0  0  0  0  0  0  0
  -19.2225  -11.9173   42.8301 O   0  0  0  0  0  0  0  0  0  0  0  0
  -15.2078   -8.5873   42.1143 C   0  0  0  0  0  0  0  0  0  0  0  0
  -15.6579   -7.2766   42.4225 C   0  0  0  0  0  0  0  0  0  0  0  0
  -16.0271   -6.1988   42.6408 N   0  0  0  0  0  0  0  0  0  0  0  0
  -14.2620   -8.9282   41.1553 C   0  0  0  0  0  0  0  0  0  0  0  0
  -13.5663   -7.9875   40.2122 C   0  0  0  0  0  0  0  0  0  0  0  0
  -14.4484   -7.4850   39.0676 C   0  0  0  0  0  0  0  0  0  0  0  0
  -14.7612   -8.5683   38.0936 N   0  0  0  0  0  0  0  0  0  0  0  0
  -16.3454   -9.1105   38.1048 S   0  0  0  0  0  0  0  0  0  0  0  0
  -16.6473   -9.7035   39.3914 O   0  0  0  0  0  0  0  0  0  0  0  0
  -17.1755   -8.0437   37.6081 O   0  0  0  0  0  0  0  0  0  0  0  0
  -16.2257  -10.3458   36.9931 N   0  0  0  0  0  0  0  0  0  0  0  0
  -16.0392  -10.0167   35.5551 C   0  0  0  0  0  0  0  0  0  0  0  0
  -14.8942  -10.8234   34.9090 C   0  0  0  0  0  0  0  0  0  0  0  0
  -14.9630  -12.2840   35.0802 N   0  0  0  0  0  0  0  0  0  0  0  0
  -15.5945  -12.6497   36.3633 C   0  0  0  0  0  0  0  0  0  0  0  0
  -15.4963  -11.5628   37.4405 C   0  0  0  0  0  0  0  0  0  0  0  0
  -12.2880  -11.3770   40.9020 H   0  0  0  0  0  0  0  0  0  0  0  0
  -13.7125  -12.1752   40.2049 H   0  0  0  0  0  0  0  0  0  0  0  0
  -13.0389  -10.7459   39.4163 H   0  0  0  0  0  0  0  0  0  0  0  0
  -15.1783  -11.8090   42.5420 H   0  0  0  0  0  0  0  0  0  0  0  0
  -17.1021   -8.1538   44.5669 H   0  0  0  0  0  0  0  0  0  0  0  0
  -17.6621   -9.6300   45.3602 H   0  0  0  0  0  0  0  0  0  0  0  0
  -15.9387   -9.3198   45.2347 H   0  0  0  0  0  0  0  0  0  0  0  0
  -18.0576   -9.1064   41.8574 H   0  0  0  0  0  0  0  0  0  0  0  0
  -18.9440   -9.5165   43.3050 H   0  0  0  0  0  0  0  0  0  0  0  0
  -17.4671  -10.6510   40.4690 H   0  0  0  0  0  0  0  0  0  0  0  0
  -17.2736  -10.7469   40.5734 H   0  0  0  0  0  0  0  0  0  0  0  0
  -13.2004   -7.1251   40.7834 H   0  0  0  0  0  0  0  0  0  0  0  0
  -12.6828   -8.4732   39.7975 H   0  0  0  0  0  0  0  0  0  0  0  0
  -13.9048   -6.7048   38.5207 H   0  0  0  0  0  0  0  0  0  0  0  0
  -15.3638   -7.0153   39.4432 H   0  0  0  0  0  0  0  0  0  0  0  0
  -14.5303   -8.2377   37.1509 H   0  0  0  0  0  0  0  0  0  0  0  0
  -15.8314   -8.9548   35.4229 H   0  0  0  0  0  0  0  0  0  0  0  0
  -16.9817  -10.2297   35.0386 H   0  0  0  0  0  0  0  0  0  0  0  0
  -14.8471  -10.5950   33.8388 H   0  0  0  0  0  0  0  0  0  0  0  0
  -13.9421  -10.4894   35.3390 H   0  0  0  0  0  0  0  0  0  0  0  0
  -15.5145  -12.6958   34.3259 H   0  0  0  0  0  0  0  0  0  0  0  0
  -15.1472  -13.5818   36.7228 H   0  0  0  0  0  0  0  0  0  0  0  0
  -16.6548  -12.8514   36.1994 H   0  0  0  0  0  0  0  0  0  0  0  0
  -15.9499  -11.9492   38.3591 H   0  0  0  0  0  0  0  0  0  0  0  0
  -14.4490  -11.3213   37.6435 H   0  0  0  0  0  0  0  0  0  0  0  0
  1  2  1  0
  2  3  2  0
  3  4  1  0
  4  5  1  0
  5  6  1  0
  5  7  1  0
  7  8  1  0
  8  9  1  0
  8 10  2  0
  4 11  1  0
 11 12  1  0
 12 13  3  0
 11 14  2  0
 14 15  1  0
 15 16  1  0
 16 17  1  0
 17 18  1  0
 18 19  2  0
 18 20  2  0
 18 21  1  0
 21 22  1  0
 22 23  1  0
 23 24  1  0
 24 25  1  0
 25 26  1  0
 14  2  1  0
 26 21  1  0
  1 27  1  0
  1 28  1  0
  1 29  1  0
  3 30  1  0
  6 31  1  0
  6 32  1  0
  6 33  1  0
  7 34  1  0
  7 35  1  0
  9 36  1  0
  9 37  1  0
 15 38  1  0
 15 39  1  0
 16 40  1  0
 16 41  1  0
 17 42  1  0
 22 43  1  0
 22 44  1  0
 23 45  1  0
 23 46  1  0
 24 47  1  0
 25 48  1  0
 25 49  1  0
 26 50  1  0
 26 51  1  0
M  END
>  <Energy>  (317) 
62.218278302872463

>  <compound_id>  (317) 
2558

>  <target_id>  (317) 
1

>  <reference_id>  (317) 
185

>  <inspiration_ids>  (317) 
[171, 185]

>  <energy_score>  (317) 
71.77705270484049

>  <distance_score>  (317) 
3.0125294080431435

>  <path>  (317) 
/opt/xchem-fragalysis-2/maxwin/BulkDock/SCRATCH/505736/C2558-P185/C2558-P185.minimised.mol

>  <scratch_subdir>  (317) 
/opt/xchem-fragalysis-2/maxwin/BulkDock/SCRATCH/505736/C2558-P185

>  <fragmenstein_runtime>  (317) 
5.317701101303101

>  <fragmenstein_outcome>  (317) 
too moved

>  <fragmenstein_mode>  (317) 
expansion

>  <fragmenstein_error>  (317) 


$$$$
C2559-P171
     RDKit          3D

 69 70  0  0  0  0  0  0  0  0999 V2000
  -15.4175   -6.0738   43.9821 C   0  0  0  0  0  0  0  0  0  0  0  0
  -14.4656   -7.1897   44.3900 C   0  0  0  0  0  0  0  0  0  0  0  0
  -13.4081   -7.5784   43.3361 C   0  0  0  0  0  0  0  0  0  0  0  0
  -13.8035   -7.8905   41.8618 C   0  0  0  0  0  0  0  0  0  0  0  0
  -14.0923   -6.5982   41.0525 C   0  0  0  0  0  0  0  0  0  0  0  0
  -14.0327   -6.6429   39.5168 C   0  0  0  0  0  0  0  0  0  0  0  0
  -13.0357   -7.4777   39.1234 F   0  0  0  0  0  0  0  0  0  0  0  0
  -15.3085   -6.9527   38.7128 C   0  0  0  0  0  0  0  0  0  0  0  0
  -16.4829   -7.6362   39.4148 C   0  0  0  0  0  0  0  0  0  0  0  0
  -16.3549   -9.1249   39.7183 C   0  0  0  0  0  0  0  0  0  0  0  0
  -15.0117   -9.5125   40.3426 C   0  0  0  0  0  0  0  0  0  0  0  0
  -14.7185  -11.0010   40.1155 C   0  0  0  0  0  0  0  0  0  0  0  0
  -13.8836  -11.1517   38.8105 C   0  0  0  0  0  0  0  0  0  0  0  0
  -14.1447  -10.2381   37.5970 C   0  0  0  0  0  0  0  0  0  0  0  0
  -13.7402  -10.9481   36.3750 N   0  0  0  0  0  0  0  0  0  0  0  0
  -14.8179  -11.0948   35.1099 S   0  0  0  0  0  0  0  0  0  0  0  0
  -14.8204   -9.8144   34.4564 O   0  0  0  0  0  0  0  0  0  0  0  0
  -14.4990  -12.3170   34.4181 O   0  0  0  0  0  0  0  0  0  0  0  0
  -16.2356  -11.3378   35.9627 N   0  0  0  0  0  0  0  0  0  0  0  0
  -17.4857  -11.0278   35.2365 C   0  0  0  0  0  0  0  0  0  0  0  0
  -18.6802  -11.0641   36.2119 C   0  0  0  0  0  0  0  0  0  0  0  0
  -18.8084  -12.3411   36.9438 N   0  0  0  0  0  0  0  0  0  0  0  0
  -17.5220  -12.6476   37.6075 C   0  0  0  0  0  0  0  0  0  0  0  0
  -16.3447  -12.6652   36.6242 C   0  0  0  0  0  0  0  0  0  0  0  0
  -13.9489  -11.6240   41.2160 N   0  0  0  0  0  0  0  0  0  0  0  0
  -14.8382  -12.3541   42.0898 N   0  0  0  0  0  0  0  0  0  0  0  0
  -14.9091   -8.9555   41.7693 C   0  0  0  0  0  0  0  0  0  0  0  0
  -15.2024   -8.3311   44.8927 N   0  0  0  0  0  0  0  0  0  0  0  0
  -16.0629   -8.4860   46.1584 C   0  0  0  0  0  0  0  0  0  0  0  0
  -16.3780   -7.7017   46.9558 O   0  0  0  0  0  0  0  0  0  0  0  0
  -16.1497   -6.4135   43.2436 H   0  0  0  0  0  0  0  0  0  0  0  0
  -14.8709   -5.2145   43.5817 H   0  0  0  0  0  0  0  0  0  0  0  0
  -15.9900   -5.7219   44.8480 H   0  0  0  0  0  0  0  0  0  0  0  0
  -13.9143   -6.8193   45.2645 H   0  0  0  0  0  0  0  0  0  0  0  0
  -12.8710   -8.4585   43.7188 H   0  0  0  0  0  0  0  0  0  0  0  0
  -12.6570   -6.7767   43.3135 H   0  0  0  0  0  0  0  0  0  0  0  0
  -12.8905   -8.3258   41.4283 H   0  0  0  0  0  0  0  0  0  0  0  0
  -15.0332   -6.1359   41.3572 H   0  0  0  0  0  0  0  0  0  0  0  0
  -13.3150   -5.8782   41.3460 H   0  0  0  0  0  0  0  0  0  0  0  0
  -13.7066   -5.6489   39.1844 H   0  0  0  0  0  0  0  0  0  0  0  0
  -15.6987   -5.9833   38.3712 H   0  0  0  0  0  0  0  0  0  0  0  0
  -15.0488   -7.4969   37.7991 H   0  0  0  0  0  0  0  0  0  0  0  0
  -17.3702   -7.5146   38.7792 H   0  0  0  0  0  0  0  0  0  0  0  0
  -16.7288   -7.0952   40.3352 H   0  0  0  0  0  0  0  0  0  0  0  0
  -16.5709   -9.6803   38.8052 H   0  0  0  0  0  0  0  0  0  0  0  0
  -17.1693   -9.4152   40.3964 H   0  0  0  0  0  0  0  0  0  0  0  0
  -14.2276   -9.0285   39.7812 H   0  0  0  0  0  0  0  0  0  0  0  0
  -15.6558  -11.5498   39.9578 H   0  0  0  0  0  0  0  0  0  0  0  0
  -13.9773  -12.1991   38.5213 H   0  0  0  0  0  0  0  0  0  0  0  0
  -12.8379  -10.9739   39.0696 H   0  0  0  0  0  0  0  0  0  0  0  0
  -13.5462   -9.3282   37.6707 H   0  0  0  0  0  0  0  0  0  0  0  0
  -15.1777   -9.9278   37.5211 H   0  0  0  0  0  0  0  0  0  0  0  0
  -12.8446  -10.6321   36.0027 H   0  0  0  0  0  0  0  0  0  0  0  0
  -17.6305  -11.7735   34.4475 H   0  0  0  0  0  0  0  0  0  0  0  0
  -17.4324  -10.0324   34.7876 H   0  0  0  0  0  0  0  0  0  0  0  0
  -19.6066  -10.8867   35.6547 H   0  0  0  0  0  0  0  0  0  0  0  0
  -18.5869  -10.2482   36.9396 H   0  0  0  0  0  0  0  0  0  0  0  0
  -18.9914  -13.0896   36.2705 H   0  0  0  0  0  0  0  0  0  0  0  0
  -17.3506  -11.9140   38.4014 H   0  0  0  0  0  0  0  0  0  0  0  0
  -17.6072  -13.6265   38.0916 H   0  0  0  0  0  0  0  0  0  0  0  0
  -16.5054  -13.4464   35.8699 H   0  0  0  0  0  0  0  0  0  0  0  0
  -15.4357  -12.9206   37.1681 H   0  0  0  0  0  0  0  0  0  0  0  0
  -13.1956  -12.2081   40.8388 H   0  0  0  0  0  0  0  0  0  0  0  0
  -14.3638  -12.6184   42.9579 H   0  0  0  0  0  0  0  0  0  0  0  0
  -15.1724  -13.2262   41.6716 H   0  0  0  0  0  0  0  0  0  0  0  0
  -15.8619   -8.5227   42.0940 H   0  0  0  0  0  0  0  0  0  0  0  0
  -14.6864   -9.7430   42.4880 H   0  0  0  0  0  0  0  0  0  0  0  0
  -15.1960   -9.2045   44.3789 H   0  0  0  0  0  0  0  0  0  0  0  0
  -16.3815   -9.5462   46.1515 H   0  0  0  0  0  0  0  0  0  0  0  0
  1  2  1  0
  2  3  1  0
  3  4  1  0
  4  5  1  0
  5  6  1  0
  6  7  1  0
  6  8  1  0
  8  9  1  0
  9 10  1  0
 10 11  1  0
 11 12  1  0
 12 13  1  0
 13 14  1  0
 14 15  1  0
 15 16  1  0
 16 17  2  0
 16 18  2  0
 16 19  1  0
 19 20  1  0
 20 21  1  0
 21 22  1  0
 22 23  1  0
 23 24  1  0
 12 25  1  0
 25 26  1  0
 11 27  1  0
  2 28  1  0
 28 29  1  0
 29 30  2  0
 27  4  1  0
 24 19  1  0
  1 31  1  0
  1 32  1  0
  1 33  1  0
  2 34  1  0
  3 35  1  0
  3 36  1  0
  4 37  1  0
  5 38  1  0
  5 39  1  0
  6 40  1  0
  8 41  1  0
  8 42  1  0
  9 43  1  0
  9 44  1  0
 10 45  1  0
 10 46  1  0
 11 47  1  0
 12 48  1  0
 13 49  1  0
 13 50  1  0
 14 51  1  0
 14 52  1  0
 15 53  1  0
 20 54  1  0
 20 55  1  0
 21 56  1  0
 21 57  1  0
 22 58  1  0
 23 59  1  0
 23 60  1  0
 24 61  1  0
 24 62  1  0
 25 63  1  0
 26 64  1  0
 26 65  1  0
 27 66  1  0
 27 67  1  0
 28 68  1  0
 29 69  1  0
M  END
>  <Energy>  (318) 
-22.550364516041807

>  <compound_id>  (318) 
2559

>  <target_id>  (318) 
1

>  <reference_id>  (318) 
171

>  <inspiration_ids>  (318) 
[171, 193]

>  <energy_score>  (318) 
-86.08642836670288

>  <distance_score>  (318) 
2.426372107354276

>  <path>  (318) 
/opt/xchem-fragalysis-2/maxwin/BulkDock/SCRATCH/505736/C2559-P171/C2559-P171.minimised.mol

>  <scratch_subdir>  (318) 
/opt/xchem-fragalysis-2/maxwin/BulkDock/SCRATCH/505736/C2559-P171

>  <fragmenstein_runtime>  (318) 
17.360509395599365

>  <fragmenstein_outcome>  (318) 
too moved

>  <fragmenstein_mode>  (318) 
expansion

>  <fragmenstein_error>  (318) 


$$$$
C2559-P193
     RDKit          3D

 69 70  0  0  0  0  0  0  0  0999 V2000
  -13.7518   -9.5023   44.8091 C   0  0  0  0  0  0  0  0  0  0  0  0
  -12.8640   -8.3567   44.3189 C   0  0  0  0  0  0  0  0  0  0  0  0
  -13.6534   -7.2450   43.5899 C   0  0  0  0  0  0  0  0  0  0  0  0
  -13.8102   -7.3154   42.0382 C   0  0  0  0  0  0  0  0  0  0  0  0
  -14.5682   -6.0475   41.5837 C   0  0  0  0  0  0  0  0  0  0  0  0
  -13.9648   -5.3380   40.3755 C   0  0  0  0  0  0  0  0  0  0  0  0
  -12.7319   -4.8802   40.7474 F   0  0  0  0  0  0  0  0  0  0  0  0
  -13.7784   -6.1241   39.0908 C   0  0  0  0  0  0  0  0  0  0  0  0
  -15.0270   -6.8173   38.5710 C   0  0  0  0  0  0  0  0  0  0  0  0
  -15.5382   -8.0288   39.3543 C   0  0  0  0  0  0  0  0  0  0  0  0
  -14.4760   -8.9198   40.0583 C   0  0  0  0  0  0  0  0  0  0  0  0
  -14.7395  -10.4288   39.6934 C   0  0  0  0  0  0  0  0  0  0  0  0
  -14.1089  -10.8803   38.3434 C   0  0  0  0  0  0  0  0  0  0  0  0
  -14.1665   -9.9889   37.1124 C   0  0  0  0  0  0  0  0  0  0  0  0
  -15.5181   -9.8216   36.5628 N   0  0  0  0  0  0  0  0  0  0  0  0
  -16.0906  -10.9910   35.5059 S   0  0  0  0  0  0  0  0  0  0  0  0
  -16.4731  -10.2876   34.3057 O   0  0  0  0  0  0  0  0  0  0  0  0
  -15.1923  -12.1170   35.4851 O   0  0  0  0  0  0  0  0  0  0  0  0
  -17.5122  -11.3937   36.3120 N   0  0  0  0  0  0  0  0  0  0  0  0
  -18.4851  -10.2910   36.5637 C   0  0  0  0  0  0  0  0  0  0  0  0
  -19.4303  -10.6002   37.7416 C   0  0  0  0  0  0  0  0  0  0  0  0
  -19.9028  -11.9887   37.7640 N   0  0  0  0  0  0  0  0  0  0  0  0
  -18.7537  -12.9186   37.8449 C   0  0  0  0  0  0  0  0  0  0  0  0
  -17.3788  -12.3474   37.4425 C   0  0  0  0  0  0  0  0  0  0  0  0
  -14.3570  -11.4381   40.7246 N   0  0  0  0  0  0  0  0  0  0  0  0
  -12.9404  -11.3675   41.0330 N   0  0  0  0  0  0  0  0  0  0  0  0
  -14.4991   -8.6220   41.5867 C   0  0  0  0  0  0  0  0  0  0  0  0
  -11.7001   -8.7733   43.5612 N   0  0  0  0  0  0  0  0  0  0  0  0
  -11.0400  -10.0330   43.4785 C   0  0  0  0  0  0  0  0  0  0  0  0
  -11.3187  -11.0939   43.9499 O   0  0  0  0  0  0  0  0  0  0  0  0
  -14.0917  -10.1591   44.0062 H   0  0  0  0  0  0  0  0  0  0  0  0
  -14.6340   -9.1170   45.3311 H   0  0  0  0  0  0  0  0  0  0  0  0
  -13.2054  -10.1282   45.5236 H   0  0  0  0  0  0  0  0  0  0  0  0
  -12.4513   -7.8967   45.2269 H   0  0  0  0  0  0  0  0  0  0  0  0
  -13.1206   -6.3065   43.8043 H   0  0  0  0  0  0  0  0  0  0  0  0
  -14.6422   -7.1352   44.0544 H   0  0  0  0  0  0  0  0  0  0  0  0
  -12.7992   -7.2955   41.6123 H   0  0  0  0  0  0  0  0  0  0  0  0
  -15.6321   -6.2483   41.4338 H   0  0  0  0  0  0  0  0  0  0  0  0
  -14.5405   -5.3063   42.3942 H   0  0  0  0  0  0  0  0  0  0  0  0
  -14.5711   -4.4498   40.1627 H   0  0  0  0  0  0  0  0  0  0  0  0
  -13.4471   -5.4096   38.3244 H   0  0  0  0  0  0  0  0  0  0  0  0
  -12.9318   -6.8096   39.1824 H   0  0  0  0  0  0  0  0  0  0  0  0
  -14.8256   -7.1299   37.5426 H   0  0  0  0  0  0  0  0  0  0  0  0
  -15.8422   -6.0870   38.4858 H   0  0  0  0  0  0  0  0  0  0  0  0
  -16.1500   -8.6163   38.6633 H   0  0  0  0  0  0  0  0  0  0  0  0
  -16.2828   -7.6891   40.0829 H   0  0  0  0  0  0  0  0  0  0  0  0
  -13.4656   -8.7041   39.7007 H   0  0  0  0  0  0  0  0  0  0  0  0
  -15.8244  -10.5460   39.6005 H   0  0  0  0  0  0  0  0  0  0  0  0
  -14.4990  -11.8747   38.0979 H   0  0  0  0  0  0  0  0  0  0  0  0
  -13.0386  -11.0018   38.5074 H   0  0  0  0  0  0  0  0  0  0  0  0
  -13.5017  -10.3799   36.3320 H   0  0  0  0  0  0  0  0  0  0  0  0
  -13.7539   -9.0074   37.3490 H   0  0  0  0  0  0  0  0  0  0  0  0
  -15.6174   -8.9256   36.0702 H   0  0  0  0  0  0  0  0  0  0  0  0
  -19.0768  -10.1519   35.6516 H   0  0  0  0  0  0  0  0  0  0  0  0
  -17.9778   -9.3496   36.7843 H   0  0  0  0  0  0  0  0  0  0  0  0
  -20.2942   -9.9277   37.6934 H   0  0  0  0  0  0  0  0  0  0  0  0
  -18.9266  -10.3779   38.6912 H   0  0  0  0  0  0  0  0  0  0  0  0
  -20.3781  -12.1816   36.8810 H   0  0  0  0  0  0  0  0  0  0  0  0
  -18.6870  -13.3009   38.8701 H   0  0  0  0  0  0  0  0  0  0  0  0
  -18.9877  -13.7856   37.2178 H   0  0  0  0  0  0  0  0  0  0  0  0
  -16.7232  -13.1829   37.1791 H   0  0  0  0  0  0  0  0  0  0  0  0
  -16.9462  -11.8290   38.2997 H   0  0  0  0  0  0  0  0  0  0  0  0
  -14.9192  -11.2629   41.5644 H   0  0  0  0  0  0  0  0  0  0  0  0
  -12.7196  -11.8462   41.9158 H   0  0  0  0  0  0  0  0  0  0  0  0
  -12.3686  -11.8481   40.3271 H   0  0  0  0  0  0  0  0  0  0  0  0
  -15.5250   -8.6694   41.9731 H   0  0  0  0  0  0  0  0  0  0  0  0
  -13.9543   -9.4125   42.0878 H   0  0  0  0  0  0  0  0  0  0  0  0
  -11.1296   -8.0705   43.1021 H   0  0  0  0  0  0  0  0  0  0  0  0
  -10.1438   -9.9065   42.8432 H   0  0  0  0  0  0  0  0  0  0  0  0
  1  2  1  0
  2  3  1  0
  3  4  1  0
  4  5  1  0
  5  6  1  0
  6  7  1  0
  6  8  1  0
  8  9  1  0
  9 10  1  0
 10 11  1  0
 11 12  1  0
 12 13  1  0
 13 14  1  0
 14 15  1  0
 15 16  1  0
 16 17  2  0
 16 18  2  0
 16 19  1  0
 19 20  1  0
 20 21  1  0
 21 22  1  0
 22 23  1  0
 23 24  1  0
 12 25  1  0
 25 26  1  0
 11 27  1  0
  2 28  1  0
 28 29  1  0
 29 30  2  0
 27  4  1  0
 24 19  1  0
  1 31  1  0
  1 32  1  0
  1 33  1  0
  2 34  1  0
  3 35  1  0
  3 36  1  0
  4 37  1  0
  5 38  1  0
  5 39  1  0
  6 40  1  0
  8 41  1  0
  8 42  1  0
  9 43  1  0
  9 44  1  0
 10 45  1  0
 10 46  1  0
 11 47  1  0
 12 48  1  0
 13 49  1  0
 13 50  1  0
 14 51  1  0
 14 52  1  0
 15 53  1  0
 20 54  1  0
 20 55  1  0
 21 56  1  0
 21 57  1  0
 22 58  1  0
 23 59  1  0
 23 60  1  0
 24 61  1  0
 24 62  1  0
 25 63  1  0
 26 64  1  0
 26 65  1  0
 27 66  1  0
 27 67  1  0
 28 68  1  0
 29 69  1  0
M  END
>  <Energy>  (319) 
-38.558069730051031

>  <compound_id>  (319) 
2559

>  <target_id>  (319) 
1

>  <reference_id>  (319) 
193

>  <inspiration_ids>  (319) 
[171, 193]

>  <energy_score>  (319) 
-64.08675898050679

>  <distance_score>  (319) 
2.9826220431160357

>  <path>  (319) 
/opt/xchem-fragalysis-2/maxwin/BulkDock/SCRATCH/505736/C2559-P193/C2559-P193.minimised.mol

>  <scratch_subdir>  (319) 
/opt/xchem-fragalysis-2/maxwin/BulkDock/SCRATCH/505736/C2559-P193

>  <fragmenstein_runtime>  (319) 
21.709819555282593

>  <fragmenstein_outcome>  (319) 
too moved

>  <fragmenstein_mode>  (319) 
expansion

>  <fragmenstein_error>  (319) 


$$$$
C2560-P172
     RDKit          3D

 55 58  0  0  0  0  0  0  0  0999 V2000
  -21.3817  -14.7821   13.0497 O   0  0  0  0  0  0  0  0  0  0  0  0
  -20.0414  -15.0650   13.5062 S   0  0  0  0  0  0  0  0  0  0  0  0
  -19.5869  -14.5259   14.7614 O   0  0  0  0  0  0  0  0  0  0  0  0
  -18.9621  -14.6935   12.3228 N   0  0  0  0  0  0  0  0  0  0  0  0
  -18.9935  -15.3971   11.0398 C   0  0  0  0  0  0  0  0  0  0  0  0
  -20.2222  -15.1589   10.2275 C   0  0  0  0  0  0  0  0  0  0  0  0
  -21.0062  -16.4651    9.9552 C   0  0  0  0  0  0  0  0  0  0  0  0
  -20.5161  -17.1170    8.7197 N   0  0  0  0  0  0  0  0  0  0  0  0
  -21.5759  -18.0170    8.3235 N   0  0  0  0  0  0  0  0  0  0  0  0
  -21.4442  -18.3828    6.9157 C   0  0  0  0  0  0  0  0  0  0  0  0
  -20.2924  -19.1925    6.7612 O   0  0  0  0  0  0  0  0  0  0  0  0
  -22.8371  -17.3072    8.5827 C   0  0  0  0  0  0  0  0  0  0  0  0
  -22.4955  -16.2841    9.6508 C   0  0  0  0  0  0  0  0  0  0  0  0
  -23.3822  -16.3660   10.9071 C   0  0  0  0  0  0  0  0  0  0  0  0
  -23.5772  -15.0135   11.4520 N   0  0  0  0  0  0  0  0  0  0  0  0
  -23.2529  -14.1991   10.3374 C   0  0  0  0  0  0  0  0  0  0  0  0
  -23.2622  -12.8333   10.3491 C   0  0  0  0  0  0  0  0  0  0  0  0
  -22.8325  -12.1771    9.1967 C   0  0  0  0  0  0  0  0  0  0  0  0
  -22.3651  -12.8779    8.0643 C   0  0  0  0  0  0  0  0  0  0  0  0
  -22.3114  -14.2549    8.0755 C   0  0  0  0  0  0  0  0  0  0  0  0
  -22.7527  -14.8830    9.2298 C   0  0  0  0  0  0  0  0  0  0  0  0
  -19.8507  -16.7300   13.5031 N   0  0  0  0  0  0  0  0  0  0  0  0
  -20.9175  -17.5317   14.1350 C   0  0  0  0  0  0  0  0  0  0  0  0
  -20.7999  -19.0038   13.6801 C   0  0  0  0  0  0  0  0  0  0  0  0
  -19.4856  -19.3995   13.1367 N   0  0  0  0  0  0  0  0  0  0  0  0
  -18.4243  -18.7451   13.9267 C   0  0  0  0  0  0  0  0  0  0  0  0
  -18.4827  -17.2073   13.8748 C   0  0  0  0  0  0  0  0  0  0  0  0
  -18.6233  -13.7161   12.2644 H   0  0  0  0  0  0  0  0  0  0  0  0
  -18.8681  -16.4679   11.1949 H   0  0  0  0  0  0  0  0  0  0  0  0
  -18.1575  -15.0290   10.4499 H   0  0  0  0  0  0  0  0  0  0  0  0
  -20.8060  -14.3877   10.7226 H   0  0  0  0  0  0  0  0  0  0  0  0
  -19.9119  -14.7285    9.2667 H   0  0  0  0  0  0  0  0  0  0  0  0
  -20.8907  -17.1738   10.7857 H   0  0  0  0  0  0  0  0  0  0  0  0
  -19.6365  -17.6012    8.9160 H   0  0  0  0  0  0  0  0  0  0  0  0
  -22.3040  -18.9804    6.5946 H   0  0  0  0  0  0  0  0  0  0  0  0
  -21.3584  -17.5137    6.2532 H   0  0  0  0  0  0  0  0  0  0  0  0
  -20.1223  -19.4698    7.6771 H   0  0  0  0  0  0  0  0  0  0  0  0
  -23.5729  -18.0408    8.9312 H   0  0  0  0  0  0  0  0  0  0  0  0
  -23.2492  -16.8456    7.6763 H   0  0  0  0  0  0  0  0  0  0  0  0
  -22.9748  -17.0364   11.6710 H   0  0  0  0  0  0  0  0  0  0  0  0
  -24.3776  -16.7549   10.6523 H   0  0  0  0  0  0  0  0  0  0  0  0
  -22.8607  -14.8152   12.1741 H   0  0  0  0  0  0  0  0  0  0  0  0
  -23.6072  -12.2852   11.2174 H   0  0  0  0  0  0  0  0  0  0  0  0
  -22.8684  -11.0907    9.1653 H   0  0  0  0  0  0  0  0  0  0  0  0
  -22.0300  -12.3259    7.1913 H   0  0  0  0  0  0  0  0  0  0  0  0
  -21.8717  -14.8071    7.2531 H   0  0  0  0  0  0  0  0  0  0  0  0
  -21.9080  -17.1582   13.8590 H   0  0  0  0  0  0  0  0  0  0  0  0
  -20.8302  -17.4772   15.2206 H   0  0  0  0  0  0  0  0  0  0  0  0
  -21.0628  -19.6614   14.5172 H   0  0  0  0  0  0  0  0  0  0  0  0
  -21.5483  -19.1966   12.9018 H   0  0  0  0  0  0  0  0  0  0  0  0
  -19.4228  -18.9738   12.2084 H   0  0  0  0  0  0  0  0  0  0  0  0
  -17.4623  -19.0818   13.5310 H   0  0  0  0  0  0  0  0  0  0  0  0
  -18.4838  -19.0904   14.9660 H   0  0  0  0  0  0  0  0  0  0  0  0
  -17.7622  -16.8651   13.1336 H   0  0  0  0  0  0  0  0  0  0  0  0
  -18.1849  -16.7837   14.8301 H   0  0  0  0  0  0  0  0  0  0  0  0
  1  2  2  0
  2  3  2  0
  2  4  1  0
  4  5  1  0
  5  6  1  0
  6  7  1  0
  7  8  1  0
  8  9  1  0
  9 10  1  0
 10 11  1  0
  9 12  1  0
 12 13  1  0
 13 14  1  0
 14 15  1  0
 15 16  1  0
 16 17  2  0
 17 18  1  0
 18 19  2  0
 19 20  1  0
 20 21  2  0
  2 22  1  0
 22 23  1  0
 23 24  1  0
 24 25  1  0
 25 26  1  0
 26 27  1  0
 13  7  1  0
 21 16  1  0
 27 22  1  0
 21 13  1  0
  4 28  1  0
  5 29  1  0
  5 30  1  0
  6 31  1  0
  6 32  1  0
  7 33  1  0
  8 34  1  0
 10 35  1  0
 10 36  1  0
 11 37  1  0
 12 38  1  0
 12 39  1  0
 14 40  1  0
 14 41  1  0
 15 42  1  0
 17 43  1  0
 18 44  1  0
 19 45  1  0
 20 46  1  0
 23 47  1  0
 23 48  1  0
 24 49  1  0
 24 50  1  0
 25 51  1  0
 26 52  1  0
 26 53  1  0
 27 54  1  0
 27 55  1  0
M  END
>  <Energy>  (320) 
-47.722456006013005

>  <compound_id>  (320) 
2560

>  <target_id>  (320) 
1

>  <reference_id>  (320) 
172

>  <inspiration_ids>  (320) 
[172, 79]

>  <energy_score>  (320) 
-70.72605186423773

>  <distance_score>  (320) 
2.695272084686692

>  <path>  (320) 
/opt/xchem-fragalysis-2/maxwin/BulkDock/SCRATCH/505736/C2560-P172/C2560-P172.minimised.mol

>  <scratch_subdir>  (320) 
/opt/xchem-fragalysis-2/maxwin/BulkDock/SCRATCH/505736/C2560-P172

>  <fragmenstein_runtime>  (320) 
16.145929098129272

>  <fragmenstein_outcome>  (320) 
too moved

>  <fragmenstein_mode>  (320) 
expansion

>  <fragmenstein_error>  (320) 


$$$$
C2560-P79
     RDKit          3D

 55 58  0  0  0  0  0  0  0  0999 V2000
  -20.5494  -19.6178   11.7324 O   0  0  0  0  0  0  0  0  0  0  0  0
  -20.3920  -18.1897   11.8741 S   0  0  0  0  0  0  0  0  0  0  0  0
  -21.4983  -17.3444   12.2369 O   0  0  0  0  0  0  0  0  0  0  0  0
  -19.6490  -17.6124   10.5132 N   0  0  0  0  0  0  0  0  0  0  0  0
  -20.1233  -18.0843    9.2193 C   0  0  0  0  0  0  0  0  0  0  0  0
  -20.7099  -16.9536    8.3943 C   0  0  0  0  0  0  0  0  0  0  0  0
  -22.1145  -16.5255    8.8759 C   0  0  0  0  0  0  0  0  0  0  0  0
  -23.0608  -16.8213    7.7688 N   0  0  0  0  0  0  0  0  0  0  0  0
  -23.2903  -15.5527    7.0657 N   0  0  0  0  0  0  0  0  0  0  0  0
  -22.9460  -15.6654    5.6501 C   0  0  0  0  0  0  0  0  0  0  0  0
  -23.6351  -16.7696    5.0969 O   0  0  0  0  0  0  0  0  0  0  0  0
  -22.4960  -14.4990    7.7252 C   0  0  0  0  0  0  0  0  0  0  0  0
  -22.2834  -15.0169    9.1266 C   0  0  0  0  0  0  0  0  0  0  0  0
  -23.4962  -14.7131   10.0472 C   0  0  0  0  0  0  0  0  0  0  0  0
  -23.0212  -14.8263   11.4302 N   0  0  0  0  0  0  0  0  0  0  0  0
  -21.6492  -14.4936   11.3133 C   0  0  0  0  0  0  0  0  0  0  0  0
  -20.7801  -14.3440   12.3666 C   0  0  0  0  0  0  0  0  0  0  0  0
  -19.4497  -14.1082   12.0606 C   0  0  0  0  0  0  0  0  0  0  0  0
  -19.0165  -13.9614   10.7277 C   0  0  0  0  0  0  0  0  0  0  0  0
  -19.8980  -14.1186    9.6720 C   0  0  0  0  0  0  0  0  0  0  0  0
  -21.1949  -14.4728    9.9893 C   0  0  0  0  0  0  0  0  0  0  0  0
  -19.1975  -17.8539   12.9727 N   0  0  0  0  0  0  0  0  0  0  0  0
  -19.6678  -17.9471   14.3633 C   0  0  0  0  0  0  0  0  0  0  0  0
  -19.8102  -19.4149   14.7997 C   0  0  0  0  0  0  0  0  0  0  0  0
  -18.5396  -20.1477   14.6991 N   0  0  0  0  0  0  0  0  0  0  0  0
  -17.9507  -19.9838   13.3563 C   0  0  0  0  0  0  0  0  0  0  0  0
  -17.8910  -18.5332   12.8437 C   0  0  0  0  0  0  0  0  0  0  0  0
  -19.4459  -16.6154   10.6115 H   0  0  0  0  0  0  0  0  0  0  0  0
  -20.8354  -18.9116    9.3044 H   0  0  0  0  0  0  0  0  0  0  0  0
  -19.2510  -18.4897    8.6922 H   0  0  0  0  0  0  0  0  0  0  0  0
  -19.9915  -16.1428    8.2976 H   0  0  0  0  0  0  0  0  0  0  0  0
  -20.7830  -17.3480    7.3697 H   0  0  0  0  0  0  0  0  0  0  0  0
  -22.4136  -17.1164    9.7481 H   0  0  0  0  0  0  0  0  0  0  0  0
  -23.9452  -17.1134    8.2035 H   0  0  0  0  0  0  0  0  0  0  0  0
  -23.2462  -14.7658    5.1039 H   0  0  0  0  0  0  0  0  0  0  0  0
  -21.8734  -15.8288    5.4941 H   0  0  0  0  0  0  0  0  0  0  0  0
  -23.7200  -17.3314    5.8907 H   0  0  0  0  0  0  0  0  0  0  0  0
  -23.0645  -13.5723    7.6890 H   0  0  0  0  0  0  0  0  0  0  0  0
  -21.5369  -14.3316    7.2193 H   0  0  0  0  0  0  0  0  0  0  0  0
  -23.8643  -13.6896    9.8898 H   0  0  0  0  0  0  0  0  0  0  0  0
  -24.3399  -15.3924    9.8855 H   0  0  0  0  0  0  0  0  0  0  0  0
  -23.4946  -14.2583   12.1235 H   0  0  0  0  0  0  0  0  0  0  0  0
  -21.1062  -14.4713   13.3915 H   0  0  0  0  0  0  0  0  0  0  0  0
  -18.7232  -14.0426   12.8641 H   0  0  0  0  0  0  0  0  0  0  0  0
  -17.9698  -13.7219   10.5455 H   0  0  0  0  0  0  0  0  0  0  0  0
  -19.5492  -14.0219    8.6516 H   0  0  0  0  0  0  0  0  0  0  0  0
  -20.6023  -17.3996   14.5182 H   0  0  0  0  0  0  0  0  0  0  0  0
  -18.9056  -17.4417   14.9555 H   0  0  0  0  0  0  0  0  0  0  0  0
  -20.1425  -19.4609   15.8413 H   0  0  0  0  0  0  0  0  0  0  0  0
  -20.5818  -19.9294   14.2182 H   0  0  0  0  0  0  0  0  0  0  0  0
  -18.7177  -21.1373   14.8615 H   0  0  0  0  0  0  0  0  0  0  0  0
  -18.5095  -20.6076   12.6509 H   0  0  0  0  0  0  0  0  0  0  0  0
  -16.9373  -20.3983   13.3699 H   0  0  0  0  0  0  0  0  0  0  0  0
  -17.5396  -18.5226   11.8085 H   0  0  0  0  0  0  0  0  0  0  0  0
  -17.1615  -17.9693   13.4341 H   0  0  0  0  0  0  0  0  0  0  0  0
  1  2  2  0
  2  3  2  0
  2  4  1  0
  4  5  1  0
  5  6  1  0
  6  7  1  0
  7  8  1  0
  8  9  1  0
  9 10  1  0
 10 11  1  0
  9 12  1  0
 12 13  1  0
 13 14  1  0
 14 15  1  0
 15 16  1  0
 16 17  2  0
 17 18  1  0
 18 19  2  0
 19 20  1  0
 20 21  2  0
  2 22  1  0
 22 23  1  0
 23 24  1  0
 24 25  1  0
 25 26  1  0
 26 27  1  0
 13  7  1  0
 21 16  1  0
 27 22  1  0
 21 13  1  0
  4 28  1  0
  5 29  1  0
  5 30  1  0
  6 31  1  0
  6 32  1  0
  7 33  1  0
  8 34  1  0
 10 35  1  0
 10 36  1  0
 11 37  1  0
 12 38  1  0
 12 39  1  0
 14 40  1  0
 14 41  1  0
 15 42  1  0
 17 43  1  0
 18 44  1  0
 19 45  1  0
 20 46  1  0
 23 47  1  0
 23 48  1  0
 24 49  1  0
 24 50  1  0
 25 51  1  0
 26 52  1  0
 26 53  1  0
 27 54  1  0
 27 55  1  0
M  END
>  <Energy>  (321) 
-57.046520613675725

>  <compound_id>  (321) 
2560

>  <target_id>  (321) 
1

>  <reference_id>  (321) 
79

>  <inspiration_ids>  (321) 
[172, 79]

>  <energy_score>  (321) 
-80.05011647190128

>  <distance_score>  (321) 
2.3398843953694746

>  <path>  (321) 
/opt/xchem-fragalysis-2/maxwin/BulkDock/SCRATCH/505736/C2560-P79/C2560-P79.minimised.mol

>  <scratch_subdir>  (321) 
/opt/xchem-fragalysis-2/maxwin/BulkDock/SCRATCH/505736/C2560-P79

>  <fragmenstein_runtime>  (321) 
15.737238883972168

>  <fragmenstein_outcome>  (321) 
too moved

>  <fragmenstein_mode>  (321) 
expansion

>  <fragmenstein_error>  (321) 


$$$$
C2562-P172
     RDKit          3D

 59 60  0  0  0  0  0  0  0  0999 V2000
  -22.3638  -12.7793   14.6258 C   0  0  0  0  0  0  0  0  0  0  0  0
  -22.3278  -14.2519   14.9300 C   0  0  0  0  0  0  0  0  0  0  0  0
  -22.7961  -15.1527   13.7876 C   0  0  0  0  0  0  0  0  0  0  0  0
  -22.0256  -15.2155   12.4491 C   0  0  0  0  0  0  0  0  0  0  0  0
  -20.4977  -15.1418   12.4894 C   0  0  0  0  0  0  0  0  0  0  0  0
  -19.9325  -15.9911   13.5609 N   0  0  0  0  0  0  0  0  0  0  0  0
  -18.7183  -16.6661   13.1439 N   0  0  0  0  0  0  0  0  0  0  0  0
  -19.0715  -17.6011   12.0488 C   0  0  0  0  0  0  0  0  0  0  0  0
  -19.7855  -18.8396   12.5928 C   0  0  0  0  0  0  0  0  0  0  0  0
  -19.8590  -19.9327   11.5370 C   0  0  0  0  0  0  0  0  0  0  0  0
  -19.8706  -16.8681   10.9334 C   0  0  0  0  0  0  0  0  0  0  0  0
  -21.1491  -17.3568   10.8696 F   0  0  0  0  0  0  0  0  0  0  0  0
  -19.3218  -16.9715    9.4970 C   0  0  0  0  0  0  0  0  0  0  0  0
  -20.3986  -16.5659    8.5295 N   0  0  0  0  0  0  0  0  0  0  0  0
  -19.9638  -16.5940    6.9221 S   0  0  0  0  0  0  0  0  0  0  0  0
  -20.2553  -17.9179    6.4320 O   0  0  0  0  0  0  0  0  0  0  0  0
  -18.6539  -16.0033    6.7846 O   0  0  0  0  0  0  0  0  0  0  0  0
  -21.0975  -15.5231    6.3028 N   0  0  0  0  0  0  0  0  0  0  0  0
  -22.5356  -15.8417    6.5693 C   0  0  0  0  0  0  0  0  0  0  0  0
  -23.4637  -14.9909    5.6859 C   0  0  0  0  0  0  0  0  0  0  0  0
  -23.2879  -15.2193    4.2394 N   0  0  0  0  0  0  0  0  0  0  0  0
  -21.9132  -15.6404    3.9247 C   0  0  0  0  0  0  0  0  0  0  0  0
  -20.8431  -15.1024    4.8896 C   0  0  0  0  0  0  0  0  0  0  0  0
  -19.9694  -15.4658   11.2030 O   0  0  0  0  0  0  0  0  0  0  0  0
  -22.7467  -14.1067   11.1999 S   0  0  0  0  0  0  0  0  0  0  0  0
  -21.6499  -13.9299    9.9616 N   0  0  0  0  0  0  0  0  0  0  0  0
  -22.9101  -12.7814   11.7530 O   0  0  0  0  0  0  0  0  0  0  0  0
  -23.8842  -14.7850   10.6107 O   0  0  0  0  0  0  0  0  0  0  0  0
  -23.3458  -12.4650   14.2649 H   0  0  0  0  0  0  0  0  0  0  0  0
  -21.6020  -12.5360   13.8881 H   0  0  0  0  0  0  0  0  0  0  0  0
  -22.1336  -12.2077   15.5298 H   0  0  0  0  0  0  0  0  0  0  0  0
  -21.3283  -14.5251   15.2727 H   0  0  0  0  0  0  0  0  0  0  0  0
  -22.9889  -14.4348   15.7872 H   0  0  0  0  0  0  0  0  0  0  0  0
  -22.7941  -16.1732   14.1977 H   0  0  0  0  0  0  0  0  0  0  0  0
  -23.8527  -14.9329   13.5854 H   0  0  0  0  0  0  0  0  0  0  0  0
  -22.3190  -16.1879   12.0431 H   0  0  0  0  0  0  0  0  0  0  0  0
  -20.1854  -14.1138   12.6862 H   0  0  0  0  0  0  0  0  0  0  0  0
  -19.7074  -15.3888   14.3569 H   0  0  0  0  0  0  0  0  0  0  0  0
  -18.0333  -15.9977   12.7513 H   0  0  0  0  0  0  0  0  0  0  0  0
  -18.1413  -17.9988   11.6439 H   0  0  0  0  0  0  0  0  0  0  0  0
  -19.2341  -19.2362   13.4552 H   0  0  0  0  0  0  0  0  0  0  0  0
  -20.7954  -18.6000   12.9463 H   0  0  0  0  0  0  0  0  0  0  0  0
  -20.4667  -19.6372   10.6775 H   0  0  0  0  0  0  0  0  0  0  0  0
  -18.8614  -20.2046   11.1766 H   0  0  0  0  0  0  0  0  0  0  0  0
  -20.3135  -20.8321   11.9656 H   0  0  0  0  0  0  0  0  0  0  0  0
  -18.4826  -16.2893    9.3650 H   0  0  0  0  0  0  0  0  0  0  0  0
  -19.0314  -18.0031    9.2763 H   0  0  0  0  0  0  0  0  0  0  0  0
  -21.2260  -17.1510    8.6720 H   0  0  0  0  0  0  0  0  0  0  0  0
  -22.7586  -15.6199    7.6180 H   0  0  0  0  0  0  0  0  0  0  0  0
  -22.7325  -16.9053    6.3916 H   0  0  0  0  0  0  0  0  0  0  0  0
  -24.5082  -15.1952    5.9440 H   0  0  0  0  0  0  0  0  0  0  0  0
  -23.2821  -13.9295    5.8983 H   0  0  0  0  0  0  0  0  0  0  0  0
  -23.5104  -14.3543    3.7478 H   0  0  0  0  0  0  0  0  0  0  0  0
  -21.8834  -16.7370    3.9294 H   0  0  0  0  0  0  0  0  0  0  0  0
  -21.6756  -15.3282    2.9016 H   0  0  0  0  0  0  0  0  0  0  0  0
  -20.8283  -14.0058    4.8663 H   0  0  0  0  0  0  0  0  0  0  0  0
  -19.8569  -15.4327    4.5457 H   0  0  0  0  0  0  0  0  0  0  0  0
  -20.8841  -13.2832   10.1933 H   0  0  0  0  0  0  0  0  0  0  0  0
  -21.2422  -14.8117    9.6263 H   0  0  0  0  0  0  0  0  0  0  0  0
  1  2  1  0
  2  3  1  0
  3  4  1  0
  4  5  1  0
  5  6  1  0
  6  7  1  0
  7  8  1  0
  8  9  1  0
  9 10  1  0
  8 11  1  0
 11 12  1  0
 11 13  1  0
 13 14  1  0
 14 15  1  0
 15 16  2  0
 15 17  2  0
 15 18  1  0
 18 19  1  0
 19 20  1  0
 20 21  1  0
 21 22  1  0
 22 23  1  0
 11 24  1  0
  4 25  1  0
 25 26  1  0
 25 27  2  0
 25 28  2  0
 24  5  1  0
 23 18  1  0
  1 29  1  0
  1 30  1  0
  1 31  1  0
  2 32  1  0
  2 33  1  0
  3 34  1  0
  3 35  1  0
  4 36  1  0
  5 37  1  0
  6 38  1  0
  7 39  1  0
  8 40  1  0
  9 41  1  0
  9 42  1  0
 10 43  1  0
 10 44  1  0
 10 45  1  0
 13 46  1  0
 13 47  1  0
 14 48  1  0
 19 49  1  0
 19 50  1  0
 20 51  1  0
 20 52  1  0
 21 53  1  0
 22 54  1  0
 22 55  1  0
 23 56  1  0
 23 57  1  0
 26 58  1  0
 26 59  1  0
M  END
>  <Energy>  (322) 
-103.30665008923

>  <compound_id>  (322) 
2562

>  <target_id>  (322) 
1

>  <reference_id>  (322) 
172

>  <inspiration_ids>  (322) 
[172, 178]

>  <energy_score>  (322) 
-129.29931763870877

>  <distance_score>  (322) 
1.359973356925358

>  <path>  (322) 
/opt/xchem-fragalysis-2/maxwin/BulkDock/SCRATCH/505736/C2562-P172/C2562-P172.minimised.mol

>  <scratch_subdir>  (322) 
/opt/xchem-fragalysis-2/maxwin/BulkDock/SCRATCH/505736/C2562-P172

>  <fragmenstein_runtime>  (322) 
6.946501970291138

>  <fragmenstein_outcome>  (322) 
too moved

>  <fragmenstein_mode>  (322) 
expansion

>  <fragmenstein_error>  (322) 


$$$$
C2562-P178
     RDKit          3D

 59 60  0  0  0  0  0  0  0  0999 V2000
  -24.0234  -13.9684   14.4608 C   0  0  0  0  0  0  0  0  0  0  0  0
  -23.0669  -14.7479   15.3318 C   0  0  0  0  0  0  0  0  0  0  0  0
  -22.2924  -15.8335   14.5831 C   0  0  0  0  0  0  0  0  0  0  0  0
  -21.3275  -15.4194   13.4603 C   0  0  0  0  0  0  0  0  0  0  0  0
  -20.4812  -16.5494   12.8747 C   0  0  0  0  0  0  0  0  0  0  0  0
  -20.2705  -17.6262   13.8347 N   0  0  0  0  0  0  0  0  0  0  0  0
  -19.1980  -18.4772   13.4538 N   0  0  0  0  0  0  0  0  0  0  0  0
  -18.8948  -18.4090   12.0031 C   0  0  0  0  0  0  0  0  0  0  0  0
  -18.3894  -19.8019   11.6699 C   0  0  0  0  0  0  0  0  0  0  0  0
  -17.8861  -19.9611   10.2546 C   0  0  0  0  0  0  0  0  0  0  0  0
  -20.0491  -17.9114   11.0276 C   0  0  0  0  0  0  0  0  0  0  0  0
  -20.7370  -18.9952   10.5598 F   0  0  0  0  0  0  0  0  0  0  0  0
  -19.4635  -17.1043    9.8163 C   0  0  0  0  0  0  0  0  0  0  0  0
  -20.4631  -16.8638    8.7321 N   0  0  0  0  0  0  0  0  0  0  0  0
  -19.8889  -16.9824    7.1761 S   0  0  0  0  0  0  0  0  0  0  0  0
  -19.2718  -18.2725    6.9850 O   0  0  0  0  0  0  0  0  0  0  0  0
  -19.1878  -15.7566    6.8806 O   0  0  0  0  0  0  0  0  0  0  0  0
  -21.3579  -16.9708    6.3620 N   0  0  0  0  0  0  0  0  0  0  0  0
  -22.2218  -18.1622    6.5975 C   0  0  0  0  0  0  0  0  0  0  0  0
  -23.6470  -17.8808    6.0714 C   0  0  0  0  0  0  0  0  0  0  0  0
  -23.7306  -17.0038    4.8810 N   0  0  0  0  0  0  0  0  0  0  0  0
  -22.4804  -17.1097    4.1086 C   0  0  0  0  0  0  0  0  0  0  0  0
  -21.2363  -16.6547    4.9043 C   0  0  0  0  0  0  0  0  0  0  0  0
  -21.0419  -17.1115   11.7018 O   0  0  0  0  0  0  0  0  0  0  0  0
  -20.1496  -14.1619   13.9274 S   0  0  0  0  0  0  0  0  0  0  0  0
  -19.4017  -13.7197   12.4664 N   0  0  0  0  0  0  0  0  0  0  0  0
  -19.0934  -14.7523   14.7189 O   0  0  0  0  0  0  0  0  0  0  0  0
  -20.8371  -12.9999   14.4537 O   0  0  0  0  0  0  0  0  0  0  0  0
  -24.6866  -13.3583   15.0765 H   0  0  0  0  0  0  0  0  0  0  0  0
  -23.4870  -13.3157   13.7920 H   0  0  0  0  0  0  0  0  0  0  0  0
  -24.6520  -14.6385   13.8659 H   0  0  0  0  0  0  0  0  0  0  0  0
  -22.4039  -14.0776   15.8842 H   0  0  0  0  0  0  0  0  0  0  0  0
  -23.6645  -15.2519   16.1034 H   0  0  0  0  0  0  0  0  0  0  0  0
  -21.7674  -16.3977   15.3532 H   0  0  0  0  0  0  0  0  0  0  0  0
  -23.0204  -16.5381   14.1571 H   0  0  0  0  0  0  0  0  0  0  0  0
  -21.9646  -14.9892   12.7147 H   0  0  0  0  0  0  0  0  0  0  0  0
  -19.5100  -16.1443   12.5891 H   0  0  0  0  0  0  0  0  0  0  0  0
  -21.1413  -18.1650   13.8822 H   0  0  0  0  0  0  0  0  0  0  0  0
  -18.3412  -18.3015   13.9943 H   0  0  0  0  0  0  0  0  0  0  0  0
  -18.0638  -17.7069   11.9268 H   0  0  0  0  0  0  0  0  0  0  0  0
  -19.1774  -20.5465   11.8447 H   0  0  0  0  0  0  0  0  0  0  0  0
  -17.5636  -20.0668   12.3449 H   0  0  0  0  0  0  0  0  0  0  0  0
  -18.6895  -19.8873    9.5172 H   0  0  0  0  0  0  0  0  0  0  0  0
  -17.1092  -19.2267   10.0226 H   0  0  0  0  0  0  0  0  0  0  0  0
  -17.4383  -20.9536   10.1325 H   0  0  0  0  0  0  0  0  0  0  0  0
  -19.1178  -16.1236   10.1600 H   0  0  0  0  0  0  0  0  0  0  0  0
  -18.6134  -17.6395    9.3969 H   0  0  0  0  0  0  0  0  0  0  0  0
  -20.8288  -15.9087    8.8716 H   0  0  0  0  0  0  0  0  0  0  0  0
  -22.2853  -18.4034    7.6631 H   0  0  0  0  0  0  0  0  0  0  0  0
  -21.7968  -19.0284    6.0755 H   0  0  0  0  0  0  0  0  0  0  0  0
  -24.1383  -18.8349    5.8482 H   0  0  0  0  0  0  0  0  0  0  0  0
  -24.2373  -17.4120    6.8682 H   0  0  0  0  0  0  0  0  0  0  0  0
  -23.7731  -16.0442    5.2332 H   0  0  0  0  0  0  0  0  0  0  0  0
  -22.3520  -18.1470    3.7737 H   0  0  0  0  0  0  0  0  0  0  0  0
  -22.5654  -16.5061    3.1981 H   0  0  0  0  0  0  0  0  0  0  0  0
  -21.1334  -15.5670    4.8127 H   0  0  0  0  0  0  0  0  0  0  0  0
  -20.3466  -17.1274    4.4737 H   0  0  0  0  0  0  0  0  0  0  0  0
  -18.7176  -14.4214   12.1655 H   0  0  0  0  0  0  0  0  0  0  0  0
  -18.7680  -12.9252   12.6944 H   0  0  0  0  0  0  0  0  0  0  0  0
  1  2  1  0
  2  3  1  0
  3  4  1  0
  4  5  1  0
  5  6  1  0
  6  7  1  0
  7  8  1  0
  8  9  1  0
  9 10  1  0
  8 11  1  0
 11 12  1  0
 11 13  1  0
 13 14  1  0
 14 15  1  0
 15 16  2  0
 15 17  2  0
 15 18  1  0
 18 19  1  0
 19 20  1  0
 20 21  1  0
 21 22  1  0
 22 23  1  0
 11 24  1  0
  4 25  1  0
 25 26  1  0
 25 27  2  0
 25 28  2  0
 24  5  1  0
 23 18  1  0
  1 29  1  0
  1 30  1  0
  1 31  1  0
  2 32  1  0
  2 33  1  0
  3 34  1  0
  3 35  1  0
  4 36  1  0
  5 37  1  0
  6 38  1  0
  7 39  1  0
  8 40  1  0
  9 41  1  0
  9 42  1  0
 10 43  1  0
 10 44  1  0
 10 45  1  0
 13 46  1  0
 13 47  1  0
 14 48  1  0
 19 49  1  0
 19 50  1  0
 20 51  1  0
 20 52  1  0
 21 53  1  0
 22 54  1  0
 22 55  1  0
 23 56  1  0
 23 57  1  0
 26 58  1  0
 26 59  1  0
M  END
>  <Energy>  (323) 
-88.69200816731724

>  <compound_id>  (323) 
2562

>  <target_id>  (323) 
1

>  <reference_id>  (323) 
178

>  <inspiration_ids>  (323) 
[172, 178]

>  <energy_score>  (323) 
-114.68467571679757

>  <distance_score>  (323) 
2.611200130813751

>  <path>  (323) 
/opt/xchem-fragalysis-2/maxwin/BulkDock/SCRATCH/505736/C2562-P178/C2562-P178.minimised.mol

>  <scratch_subdir>  (323) 
/opt/xchem-fragalysis-2/maxwin/BulkDock/SCRATCH/505736/C2562-P178

>  <fragmenstein_runtime>  (323) 
7.296686410903931

>  <fragmenstein_outcome>  (323) 
too moved

>  <fragmenstein_mode>  (323) 
expansion

>  <fragmenstein_error>  (323) 


$$$$
C748-P173
     RDKit          3D

 48 50  0  0  0  0  0  0  0  0999 V2000
   -9.5180  -25.3017   26.3509 N   0  0  0  0  0  0  0  0  0  0  0  0
  -10.6181  -25.3580   26.7096 C   0  0  0  0  0  0  0  0  0  0  0  0
  -12.0272  -25.5151   27.1002 C   0  0  0  0  0  0  0  0  0  0  0  0
  -12.9327  -25.6074   25.9126 N   0  0  0  0  0  0  0  0  0  0  0  0
  -13.0818  -24.2029   25.5888 C   0  0  0  0  0  0  0  0  0  0  0  0
  -13.2636  -23.5825   26.8627 N   0  0  0  0  0  0  0  0  0  0  0  0
  -12.6115  -24.3226   27.9020 C   0  0  0  0  0  0  0  0  0  0  0  0
  -11.7151  -23.4061   28.7108 C   0  0  0  0  0  0  0  0  0  0  0  0
  -12.5209  -22.8638   29.8733 C   0  0  0  0  0  0  0  0  0  0  0  0
  -13.7497  -23.7432   29.9317 C   0  0  0  0  0  0  0  0  0  0  0  0
  -14.1279  -24.2656   31.3271 C   0  0  0  0  0  0  0  0  0  0  0  0
  -14.5840  -23.1429   32.2919 C   0  0  0  0  0  0  0  0  0  0  0  0
  -15.5878  -22.3156   31.6183 N   0  0  0  0  0  0  0  0  0  0  0  0
  -16.3544  -21.0498   32.3383 S   0  0  0  0  0  0  0  0  0  0  0  0
  -15.4249  -20.3718   33.2053 O   0  0  0  0  0  0  0  0  0  0  0  0
  -17.0302  -20.3503   31.2681 O   0  0  0  0  0  0  0  0  0  0  0  0
  -17.4878  -21.8332   33.2877 N   0  0  0  0  0  0  0  0  0  0  0  0
  -18.4915  -22.6691   32.5717 C   0  0  0  0  0  0  0  0  0  0  0  0
  -19.3265  -23.4617   33.5954 C   0  0  0  0  0  0  0  0  0  0  0  0
  -20.0239  -22.5973   34.5602 N   0  0  0  0  0  0  0  0  0  0  0  0
  -19.0526  -21.7041   35.2207 C   0  0  0  0  0  0  0  0  0  0  0  0
  -18.1922  -20.8985   34.2300 C   0  0  0  0  0  0  0  0  0  0  0  0
  -13.6863  -24.7034   28.8274 N   0  0  0  0  0  0  0  0  0  0  0  0
  -12.1427  -26.4727   27.6114 H   0  0  0  0  0  0  0  0  0  0  0  0
  -13.8469  -25.8607   26.2949 H   0  0  0  0  0  0  0  0  0  0  0  0
  -12.1923  -23.7917   25.0998 H   0  0  0  0  0  0  0  0  0  0  0  0
  -13.9402  -24.0342   24.9314 H   0  0  0  0  0  0  0  0  0  0  0  0
  -12.9555  -22.6118   26.7776 H   0  0  0  0  0  0  0  0  0  0  0  0
  -10.9230  -23.9896   29.1367 H   0  0  0  0  0  0  0  0  0  0  0  0
  -11.2493  -22.6016   28.1312 H   0  0  0  0  0  0  0  0  0  0  0  0
  -11.9527  -22.8966   30.8054 H   0  0  0  0  0  0  0  0  0  0  0  0
  -12.7786  -21.8169   29.6901 H   0  0  0  0  0  0  0  0  0  0  0  0
  -14.5809  -23.1417   29.6394 H   0  0  0  0  0  0  0  0  0  0  0  0
  -13.2940  -24.8131   31.7740 H   0  0  0  0  0  0  0  0  0  0  0  0
  -14.9559  -24.9793   31.2221 H   0  0  0  0  0  0  0  0  0  0  0  0
  -13.7289  -22.5233   32.5792 H   0  0  0  0  0  0  0  0  0  0  0  0
  -15.0111  -23.5966   33.1917 H   0  0  0  0  0  0  0  0  0  0  0  0
  -16.1667  -22.7816   30.9080 H   0  0  0  0  0  0  0  0  0  0  0  0
  -17.9924  -23.3920   31.9210 H   0  0  0  0  0  0  0  0  0  0  0  0
  -19.1440  -22.0381   31.9566 H   0  0  0  0  0  0  0  0  0  0  0  0
  -20.0720  -24.0605   33.0611 H   0  0  0  0  0  0  0  0  0  0  0  0
  -18.6780  -24.1615   34.1376 H   0  0  0  0  0  0  0  0  0  0  0  0
  -20.4758  -23.1738   35.2687 H   0  0  0  0  0  0  0  0  0  0  0  0
  -18.3998  -22.3028   35.8685 H   0  0  0  0  0  0  0  0  0  0  0  0
  -19.5999  -21.0099   35.8675 H   0  0  0  0  0  0  0  0  0  0  0  0
  -18.8201  -20.2008   33.6626 H   0  0  0  0  0  0  0  0  0  0  0  0
  -17.4600  -20.3216   34.8048 H   0  0  0  0  0  0  0  0  0  0  0  0
  -13.6550  -25.6557   29.1606 H   0  0  0  0  0  0  0  0  0  0  0  0
  1  2  3  0
  2  3  1  0
  3  4  1  0
  4  5  1  0
  5  6  1  0
  6  7  1  0
  7  8  1  0
  8  9  1  0
  9 10  1  0
 10 11  1  0
 11 12  1  0
 12 13  1  0
 13 14  1  0
 14 15  2  0
 14 16  2  0
 14 17  1  0
 17 18  1  0
 18 19  1  0
 19 20  1  0
 20 21  1  0
 21 22  1  0
 10 23  1  0
  7  3  1  0
 22 17  1  0
 23  7  1  0
  3 24  1  0
  4 25  1  0
  5 26  1  0
  5 27  1  0
  6 28  1  0
  8 29  1  0
  8 30  1  0
  9 31  1  0
  9 32  1  0
 10 33  1  0
 11 34  1  0
 11 35  1  0
 12 36  1  0
 12 37  1  0
 13 38  1  0
 18 39  1  0
 18 40  1  0
 19 41  1  0
 19 42  1  0
 20 43  1  0
 21 44  1  0
 21 45  1  0
 22 46  1  0
 22 47  1  0
 23 48  1  0
M  END
>  <Energy>  (324) 
-118.5208536858555

>  <compound_id>  (324) 
748

>  <target_id>  (324) 
1

>  <reference_id>  (324) 
173

>  <inspiration_ids>  (324) 
[173, 32]

>  <energy_score>  (324) 
-54.291102861610256

>  <distance_score>  (324) 
1.2135058656562652

>  <path>  (324) 
/opt/xchem-fragalysis-2/maxwin/BulkDock/SCRATCH/505736/C748-P173/C748-P173.minimised.mol

>  <scratch_subdir>  (324) 
/opt/xchem-fragalysis-2/maxwin/BulkDock/SCRATCH/505736/C748-P173

>  <fragmenstein_runtime>  (324) 
3.117824077606201

>  <fragmenstein_outcome>  (324) 
too moved

>  <fragmenstein_mode>  (324) 
expansion

>  <fragmenstein_error>  (324) 


$$$$
C748-P32
     RDKit          3D

 48 50  0  0  0  0  0  0  0  0999 V2000
  -10.7468  -25.7544   26.8932 N   0  0  0  0  0  0  0  0  0  0  0  0
  -11.5233  -26.2550   27.6000 C   0  0  0  0  0  0  0  0  0  0  0  0
  -12.5408  -26.8890   28.4847 C   0  0  0  0  0  0  0  0  0  0  0  0
  -12.5590  -28.3814   28.4195 N   0  0  0  0  0  0  0  0  0  0  0  0
  -13.7380  -28.7364   27.6128 C   0  0  0  0  0  0  0  0  0  0  0  0
  -14.3167  -27.5093   27.0657 N   0  0  0  0  0  0  0  0  0  0  0  0
  -14.0058  -26.5314   28.0823 C   0  0  0  0  0  0  0  0  0  0  0  0
  -14.2915  -25.0725   27.7969 C   0  0  0  0  0  0  0  0  0  0  0  0
  -14.2286  -24.5995   29.2240 C   0  0  0  0  0  0  0  0  0  0  0  0
  -14.9333  -25.6570   30.0993 C   0  0  0  0  0  0  0  0  0  0  0  0
  -16.3140  -25.4023   30.7925 C   0  0  0  0  0  0  0  0  0  0  0  0
  -16.6070  -24.4930   32.0565 C   0  0  0  0  0  0  0  0  0  0  0  0
  -16.8066  -23.0931   31.6798 N   0  0  0  0  0  0  0  0  0  0  0  0
  -17.3300  -21.7858   32.6340 S   0  0  0  0  0  0  0  0  0  0  0  0
  -16.3456  -21.3610   33.5938 O   0  0  0  0  0  0  0  0  0  0  0  0
  -17.9049  -20.8171   31.7218 O   0  0  0  0  0  0  0  0  0  0  0  0
  -18.5683  -22.4726   33.4965 N   0  0  0  0  0  0  0  0  0  0  0  0
  -19.7531  -22.8992   32.7201 C   0  0  0  0  0  0  0  0  0  0  0  0
  -20.6520  -23.7346   33.6457 C   0  0  0  0  0  0  0  0  0  0  0  0
  -21.0868  -22.9915   34.8424 N   0  0  0  0  0  0  0  0  0  0  0  0
  -19.9199  -22.4499   35.5613 C   0  0  0  0  0  0  0  0  0  0  0  0
  -18.9928  -21.6278   34.6578 C   0  0  0  0  0  0  0  0  0  0  0  0
  -15.0053  -26.7830   29.1483 N   0  0  0  0  0  0  0  0  0  0  0  0
  -12.3088  -26.6121   29.5198 H   0  0  0  0  0  0  0  0  0  0  0  0
  -12.7755  -28.7118   29.3602 H   0  0  0  0  0  0  0  0  0  0  0  0
  -13.4929  -29.4538   26.8279 H   0  0  0  0  0  0  0  0  0  0  0  0
  -14.4778  -29.2429   28.2464 H   0  0  0  0  0  0  0  0  0  0  0  0
  -13.7720  -27.2968   26.2262 H   0  0  0  0  0  0  0  0  0  0  0  0
  -13.5628  -24.5828   27.1455 H   0  0  0  0  0  0  0  0  0  0  0  0
  -15.2892  -24.9135   27.3689 H   0  0  0  0  0  0  0  0  0  0  0  0
  -13.1455  -24.5880   29.3961 H   0  0  0  0  0  0  0  0  0  0  0  0
  -14.5487  -23.6029   29.4129 H   0  0  0  0  0  0  0  0  0  0  0  0
  -14.2852  -26.0751   30.8629 H   0  0  0  0  0  0  0  0  0  0  0  0
  -17.0517  -25.1749   30.0153 H   0  0  0  0  0  0  0  0  0  0  0  0
  -16.6200  -26.4019   31.1432 H   0  0  0  0  0  0  0  0  0  0  0  0
  -15.9056  -24.6695   32.8543 H   0  0  0  0  0  0  0  0  0  0  0  0
  -17.5683  -24.8491   32.4477 H   0  0  0  0  0  0  0  0  0  0  0  0
  -15.8813  -22.6997   31.4455 H   0  0  0  0  0  0  0  0  0  0  0  0
  -19.4628  -23.5160   31.8645 H   0  0  0  0  0  0  0  0  0  0  0  0
  -20.3030  -22.0283   32.3436 H   0  0  0  0  0  0  0  0  0  0  0  0
  -21.5420  -24.0508   33.0911 H   0  0  0  0  0  0  0  0  0  0  0  0
  -20.1235  -24.6448   33.9565 H   0  0  0  0  0  0  0  0  0  0  0  0
  -21.5977  -23.6193   35.4620 H   0  0  0  0  0  0  0  0  0  0  0  0
  -19.3582  -23.2802   36.0077 H   0  0  0  0  0  0  0  0  0  0  0  0
  -20.2754  -21.8208   36.3843 H   0  0  0  0  0  0  0  0  0  0  0  0
  -19.5041  -20.7254   34.3013 H   0  0  0  0  0  0  0  0  0  0  0  0
  -18.1296  -21.3252   35.2591 H   0  0  0  0  0  0  0  0  0  0  0  0
  -15.9117  -26.7958   28.6772 H   0  0  0  0  0  0  0  0  0  0  0  0
  1  2  3  0
  2  3  1  0
  3  4  1  0
  4  5  1  0
  5  6  1  0
  6  7  1  0
  7  8  1  0
  8  9  1  0
  9 10  1  0
 10 11  1  0
 11 12  1  0
 12 13  1  0
 13 14  1  0
 14 15  2  0
 14 16  2  0
 14 17  1  0
 17 18  1  0
 18 19  1  0
 19 20  1  0
 20 21  1  0
 21 22  1  0
 10 23  1  0
  7  3  1  0
 22 17  1  0
 23  7  1  0
  3 24  1  0
  4 25  1  0
  5 26  1  0
  5 27  1  0
  6 28  1  0
  8 29  1  0
  8 30  1  0
  9 31  1  0
  9 32  1  0
 10 33  1  0
 11 34  1  0
 11 35  1  0
 12 36  1  0
 12 37  1  0
 13 38  1  0
 18 39  1  0
 18 40  1  0
 19 41  1  0
 19 42  1  0
 20 43  1  0
 21 44  1  0
 21 45  1  0
 22 46  1  0
 22 47  1  0
 23 48  1  0
M  END
>  <Energy>  (325) 
-99.91412556314566

>  <compound_id>  (325) 
748

>  <target_id>  (325) 
1

>  <reference_id>  (325) 
32

>  <inspiration_ids>  (325) 
[173, 32]

>  <energy_score>  (325) 
-35.68437473890259

>  <distance_score>  (325) 
2.7248057624518607

>  <path>  (325) 
/opt/xchem-fragalysis-2/maxwin/BulkDock/SCRATCH/505736/C748-P32/C748-P32.minimised.mol

>  <scratch_subdir>  (325) 
/opt/xchem-fragalysis-2/maxwin/BulkDock/SCRATCH/505736/C748-P32

>  <fragmenstein_runtime>  (325) 
4.953774452209473

>  <fragmenstein_outcome>  (325) 
too moved

>  <fragmenstein_mode>  (325) 
expansion

>  <fragmenstein_error>  (325) 


$$$$
C966-P173
     RDKit          3D

 61 63  0  0  0  0  0  0  0  0999 V2000
  -13.9659  -27.8588   26.4606 C   0  0  0  0  0  0  0  0  0  0  0  0
  -13.8063  -26.3510   26.6220 C   0  0  0  0  0  0  0  0  0  0  0  0
  -13.4708  -25.9978   28.0024 N   0  0  0  0  0  0  0  0  0  0  0  0
  -12.6800  -24.7287   27.9499 N   0  0  0  0  0  0  0  0  0  0  0  0
  -12.8449  -24.1107   29.2650 C   0  0  0  0  0  0  0  0  0  0  0  0
  -12.3725  -22.6708   29.4038 C   0  0  0  0  0  0  0  0  0  0  0  0
  -12.8493  -22.0106   30.6161 N   0  0  0  0  0  0  0  0  0  0  0  0
  -12.3712  -22.5229   31.8899 C   0  0  0  0  0  0  0  0  0  0  0  0
  -14.3061  -24.3620   29.4415 C   0  0  0  0  0  0  0  0  0  0  0  0
  -14.5699  -25.7844   28.9832 C   0  0  0  0  0  0  0  0  0  0  0  0
  -15.9942  -26.2050   28.5955 C   0  0  0  0  0  0  0  0  0  0  0  0
  -16.3532  -27.3337   29.5586 C   0  0  0  0  0  0  0  0  0  0  0  0
  -15.6093  -26.9349   30.8260 C   0  0  0  0  0  0  0  0  0  0  0  0
  -16.4778  -25.9245   31.6355 C   0  0  0  0  0  0  0  0  0  0  0  0
  -15.8498  -24.8057   32.4911 C   0  0  0  0  0  0  0  0  0  0  0  0
  -16.4755  -23.5384   32.0379 N   0  0  0  0  0  0  0  0  0  0  0  0
  -16.2227  -22.1008   32.8190 S   0  0  0  0  0  0  0  0  0  0  0  0
  -15.1872  -22.2500   33.8062 O   0  0  0  0  0  0  0  0  0  0  0  0
  -16.1773  -21.0751   31.7979 O   0  0  0  0  0  0  0  0  0  0  0  0
  -17.6995  -21.9646   33.6130 N   0  0  0  0  0  0  0  0  0  0  0  0
  -18.8927  -21.8517   32.7274 C   0  0  0  0  0  0  0  0  0  0  0  0
  -20.1782  -21.9229   33.5715 C   0  0  0  0  0  0  0  0  0  0  0  0
  -20.2492  -20.8907   34.6213 N   0  0  0  0  0  0  0  0  0  0  0  0
  -19.0368  -20.9758   35.4618 C   0  0  0  0  0  0  0  0  0  0  0  0
  -17.7225  -20.8968   34.6598 C   0  0  0  0  0  0  0  0  0  0  0  0
  -14.3301  -26.5541   30.2208 N   0  0  0  0  0  0  0  0  0  0  0  0
  -14.1726  -28.1014   25.4129 H   0  0  0  0  0  0  0  0  0  0  0  0
  -14.7803  -28.2656   27.0638 H   0  0  0  0  0  0  0  0  0  0  0  0
  -13.0447  -28.3795   26.7455 H   0  0  0  0  0  0  0  0  0  0  0  0
  -12.9748  -26.0759   25.9570 H   0  0  0  0  0  0  0  0  0  0  0  0
  -14.6733  -25.7991   26.2420 H   0  0  0  0  0  0  0  0  0  0  0  0
  -11.6902  -24.8988   27.7615 H   0  0  0  0  0  0  0  0  0  0  0  0
  -12.3377  -24.6167   30.0672 H   0  0  0  0  0  0  0  0  0  0  0  0
  -11.2902  -22.6160   29.3301 H   0  0  0  0  0  0  0  0  0  0  0  0
  -12.7136  -22.0930   28.5444 H   0  0  0  0  0  0  0  0  0  0  0  0
  -13.8651  -22.0673   30.6541 H   0  0  0  0  0  0  0  0  0  0  0  0
  -12.8649  -21.9712   32.6947 H   0  0  0  0  0  0  0  0  0  0  0  0
  -12.6230  -23.5768   32.0116 H   0  0  0  0  0  0  0  0  0  0  0  0
  -11.3099  -22.3579   32.0411 H   0  0  0  0  0  0  0  0  0  0  0  0
  -14.7962  -23.6732   28.8065 H   0  0  0  0  0  0  0  0  0  0  0  0
  -14.5992  -24.1422   30.4557 H   0  0  0  0  0  0  0  0  0  0  0  0
  -16.7148  -25.4059   28.7263 H   0  0  0  0  0  0  0  0  0  0  0  0
  -16.1342  -26.5525   27.5716 H   0  0  0  0  0  0  0  0  0  0  0  0
  -17.4351  -27.4327   29.6945 H   0  0  0  0  0  0  0  0  0  0  0  0
  -15.9806  -28.2924   29.1754 H   0  0  0  0  0  0  0  0  0  0  0  0
  -15.4516  -27.8157   31.4592 H   0  0  0  0  0  0  0  0  0  0  0  0
  -17.2308  -25.4849   30.9684 H   0  0  0  0  0  0  0  0  0  0  0  0
  -17.0805  -26.5378   32.3223 H   0  0  0  0  0  0  0  0  0  0  0  0
  -14.7640  -24.7671   32.3980 H   0  0  0  0  0  0  0  0  0  0  0  0
  -16.1000  -24.9659   33.5455 H   0  0  0  0  0  0  0  0  0  0  0  0
  -16.4568  -23.3947   31.0197 H   0  0  0  0  0  0  0  0  0  0  0  0
  -18.8635  -20.9053   32.1738 H   0  0  0  0  0  0  0  0  0  0  0  0
  -18.9136  -22.6739   32.0053 H   0  0  0  0  0  0  0  0  0  0  0  0
  -21.0473  -21.8102   32.9141 H   0  0  0  0  0  0  0  0  0  0  0  0
  -20.2621  -22.9123   34.0382 H   0  0  0  0  0  0  0  0  0  0  0  0
  -20.2495  -19.9697   34.1749 H   0  0  0  0  0  0  0  0  0  0  0  0
  -19.0627  -20.1616   36.1944 H   0  0  0  0  0  0  0  0  0  0  0  0
  -19.0669  -21.9135   36.0307 H   0  0  0  0  0  0  0  0  0  0  0  0
  -17.6262  -19.9111   34.1884 H   0  0  0  0  0  0  0  0  0  0  0  0
  -16.8882  -21.0352   35.3554 H   0  0  0  0  0  0  0  0  0  0  0  0
  -13.8432  -27.4011   29.9341 H   0  0  0  0  0  0  0  0  0  0  0  0
  1  2  1  0
  2  3  1  0
  3  4  1  0
  4  5  1  0
  5  6  1  0
  6  7  1  0
  7  8  1  0
  5  9  1  0
  9 10  1  0
 10 11  1  0
 11 12  1  0
 12 13  1  0
 13 14  1  0
 14 15  1  0
 15 16  1  0
 16 17  1  0
 17 18  2  0
 17 19  2  0
 17 20  1  0
 20 21  1  0
 21 22  1  0
 22 23  1  0
 23 24  1  0
 24 25  1  0
 13 26  1  0
 10  3  1  0
 25 20  1  0
 26 10  1  0
  1 27  1  0
  1 28  1  0
  1 29  1  0
  2 30  1  0
  2 31  1  0
  4 32  1  0
  5 33  1  0
  6 34  1  0
  6 35  1  0
  7 36  1  0
  8 37  1  0
  8 38  1  0
  8 39  1  0
  9 40  1  0
  9 41  1  0
 11 42  1  0
 11 43  1  0
 12 44  1  0
 12 45  1  0
 13 46  1  0
 14 47  1  0
 14 48  1  0
 15 49  1  0
 15 50  1  0
 16 51  1  0
 21 52  1  0
 21 53  1  0
 22 54  1  0
 22 55  1  0
 23 56  1  0
 24 57  1  0
 24 58  1  0
 25 59  1  0
 25 60  1  0
 26 61  1  0
M  END
>  <Energy>  (326) 
-67.362028163078108

>  <compound_id>  (326) 
966

>  <target_id>  (326) 
1

>  <reference_id>  (326) 
173

>  <inspiration_ids>  (326) 
[173, 35]

>  <energy_score>  (326) 
-159.81917225217296

>  <distance_score>  (326) 
3.454713600425396

>  <path>  (326) 
/opt/xchem-fragalysis-2/maxwin/BulkDock/SCRATCH/505736/C966-P173/C966-P173.minimised.mol

>  <scratch_subdir>  (326) 
/opt/xchem-fragalysis-2/maxwin/BulkDock/SCRATCH/505736/C966-P173

>  <fragmenstein_runtime>  (326) 
12.66214108467102

>  <fragmenstein_outcome>  (326) 
too moved

>  <fragmenstein_mode>  (326) 
expansion

>  <fragmenstein_error>  (326) 


$$$$
C966-P35
     RDKit          3D

 61 63  0  0  0  0  0  0  0  0999 V2000
  -11.0079  -27.7234   27.2875 C   0  0  0  0  0  0  0  0  0  0  0  0
  -11.7022  -27.3314   28.5801 C   0  0  0  0  0  0  0  0  0  0  0  0
  -11.1031  -26.0822   29.0577 N   0  0  0  0  0  0  0  0  0  0  0  0
   -9.9160  -26.4278   29.9657 N   0  0  0  0  0  0  0  0  0  0  0  0
  -10.4554  -26.5251   31.3390 C   0  0  0  0  0  0  0  0  0  0  0  0
   -9.6564  -25.8653   32.4910 C   0  0  0  0  0  0  0  0  0  0  0  0
   -9.5621  -24.4154   32.3663 N   0  0  0  0  0  0  0  0  0  0  0  0
  -10.0952  -23.6456   33.4793 C   0  0  0  0  0  0  0  0  0  0  0  0
  -11.8329  -25.9181   31.2582 C   0  0  0  0  0  0  0  0  0  0  0  0
  -11.9597  -25.2720   29.9075 C   0  0  0  0  0  0  0  0  0  0  0  0
  -11.4605  -23.8428   29.8078 C   0  0  0  0  0  0  0  0  0  0  0  0
  -12.4685  -23.0276   30.5598 C   0  0  0  0  0  0  0  0  0  0  0  0
  -13.7314  -23.8362   30.3347 C   0  0  0  0  0  0  0  0  0  0  0  0
  -14.5866  -24.1050   31.5832 C   0  0  0  0  0  0  0  0  0  0  0  0
  -14.7859  -22.9255   32.5598 C   0  0  0  0  0  0  0  0  0  0  0  0
  -15.3492  -21.7941   31.8274 N   0  0  0  0  0  0  0  0  0  0  0  0
  -16.2692  -20.6357   32.5626 S   0  0  0  0  0  0  0  0  0  0  0  0
  -15.4375  -19.9310   33.5029 O   0  0  0  0  0  0  0  0  0  0  0  0
  -16.8986  -19.9369   31.4612 O   0  0  0  0  0  0  0  0  0  0  0  0
  -17.4181  -21.5344   33.3681 N   0  0  0  0  0  0  0  0  0  0  0  0
  -18.4149  -22.2669   32.5485 C   0  0  0  0  0  0  0  0  0  0  0  0
  -19.2484  -23.2079   33.4401 C   0  0  0  0  0  0  0  0  0  0  0  0
  -19.9274  -22.5125   34.5473 N   0  0  0  0  0  0  0  0  0  0  0  0
  -18.9096  -21.7930   35.3430 C   0  0  0  0  0  0  0  0  0  0  0  0
  -18.0673  -20.8138   34.5034 C   0  0  0  0  0  0  0  0  0  0  0  0
  -13.3661  -25.0705   29.5705 N   0  0  0  0  0  0  0  0  0  0  0  0
  -11.1716  -26.9700   26.5096 H   0  0  0  0  0  0  0  0  0  0  0  0
  -11.4208  -28.6657   26.9259 H   0  0  0  0  0  0  0  0  0  0  0  0
   -9.9298  -27.8463   27.4249 H   0  0  0  0  0  0  0  0  0  0  0  0
  -12.7628  -27.2032   28.3367 H   0  0  0  0  0  0  0  0  0  0  0  0
  -11.6434  -28.1461   29.3122 H   0  0  0  0  0  0  0  0  0  0  0  0
   -9.2556  -25.6430   29.9543 H   0  0  0  0  0  0  0  0  0  0  0  0
  -10.5443  -27.5913   31.5781 H   0  0  0  0  0  0  0  0  0  0  0  0
   -8.6481  -26.2921   32.5124 H   0  0  0  0  0  0  0  0  0  0  0  0
  -10.1151  -26.1498   33.4454 H   0  0  0  0  0  0  0  0  0  0  0  0
   -8.5869  -24.1703   32.2183 H   0  0  0  0  0  0  0  0  0  0  0  0
  -11.1750  -23.7589   33.5558 H   0  0  0  0  0  0  0  0  0  0  0  0
   -9.6385  -23.9199   34.4325 H   0  0  0  0  0  0  0  0  0  0  0  0
   -9.9021  -22.5812   33.3139 H   0  0  0  0  0  0  0  0  0  0  0  0
  -11.9887  -25.1768   32.0323 H   0  0  0  0  0  0  0  0  0  0  0  0
  -12.5724  -26.7239   31.3631 H   0  0  0  0  0  0  0  0  0  0  0  0
  -10.5051  -23.7919   30.2782 H   0  0  0  0  0  0  0  0  0  0  0  0
  -11.3712  -23.4936   28.7702 H   0  0  0  0  0  0  0  0  0  0  0  0
  -12.1928  -22.9519   31.6129 H   0  0  0  0  0  0  0  0  0  0  0  0
  -12.5263  -22.0118   30.1597 H   0  0  0  0  0  0  0  0  0  0  0  0
  -14.3112  -23.2653   29.6377 H   0  0  0  0  0  0  0  0  0  0  0  0
  -15.5715  -24.4654   31.2575 H   0  0  0  0  0  0  0  0  0  0  0  0
  -14.1873  -24.9405   32.1404 H   0  0  0  0  0  0  0  0  0  0  0  0
  -13.8517  -22.6294   33.0424 H   0  0  0  0  0  0  0  0  0  0  0  0
  -15.4811  -23.2646   33.3306 H   0  0  0  0  0  0  0  0  0  0  0  0
  -15.8784  -22.1027   31.0083 H   0  0  0  0  0  0  0  0  0  0  0  0
  -19.0734  -21.5559   32.0358 H   0  0  0  0  0  0  0  0  0  0  0  0
  -17.9125  -22.8806   31.7980 H   0  0  0  0  0  0  0  0  0  0  0  0
  -20.0055  -23.7079   32.8260 H   0  0  0  0  0  0  0  0  0  0  0  0
  -18.6057  -23.9965   33.8515 H   0  0  0  0  0  0  0  0  0  0  0  0
  -20.5671  -21.8201   34.1571 H   0  0  0  0  0  0  0  0  0  0  0  0
  -19.4175  -21.2410   36.1413 H   0  0  0  0  0  0  0  0  0  0  0  0
  -18.2544  -22.5250   35.8318 H   0  0  0  0  0  0  0  0  0  0  0  0
  -18.7014  -20.0087   34.1126 H   0  0  0  0  0  0  0  0  0  0  0  0
  -17.3092  -20.3721   35.1575 H   0  0  0  0  0  0  0  0  0  0  0  0
  -13.3717  -24.8451   28.5752 H   0  0  0  0  0  0  0  0  0  0  0  0
  1  2  1  0
  2  3  1  0
  3  4  1  0
  4  5  1  0
  5  6  1  0
  6  7  1  0
  7  8  1  0
  5  9  1  0
  9 10  1  0
 10 11  1  0
 11 12  1  0
 12 13  1  0
 13 14  1  0
 14 15  1  0
 15 16  1  0
 16 17  1  0
 17 18  2  0
 17 19  2  0
 17 20  1  0
 20 21  1  0
 21 22  1  0
 22 23  1  0
 23 24  1  0
 24 25  1  0
 13 26  1  0
 10  3  1  0
 25 20  1  0
 26 10  1  0
  1 27  1  0
  1 28  1  0
  1 29  1  0
  2 30  1  0
  2 31  1  0
  4 32  1  0
  5 33  1  0
  6 34  1  0
  6 35  1  0
  7 36  1  0
  8 37  1  0
  8 38  1  0
  8 39  1  0
  9 40  1  0
  9 41  1  0
 11 42  1  0
 11 43  1  0
 12 44  1  0
 12 45  1  0
 13 46  1  0
 14 47  1  0
 14 48  1  0
 15 49  1  0
 15 50  1  0
 16 51  1  0
 21 52  1  0
 21 53  1  0
 22 54  1  0
 22 55  1  0
 23 56  1  0
 24 57  1  0
 24 58  1  0
 25 59  1  0
 25 60  1  0
 26 61  1  0
M  END
>  <Energy>  (327) 
-72.05742102625473

>  <compound_id>  (327) 
966

>  <target_id>  (327) 
1

>  <reference_id>  (327) 
35

>  <inspiration_ids>  (327) 
[173, 35]

>  <energy_score>  (327) 
-58.350097645391315

>  <distance_score>  (327) 
1.4070977598934078

>  <path>  (327) 
/opt/xchem-fragalysis-2/maxwin/BulkDock/SCRATCH/505736/C966-P35/C966-P35.minimised.mol

>  <scratch_subdir>  (327) 
/opt/xchem-fragalysis-2/maxwin/BulkDock/SCRATCH/505736/C966-P35

>  <fragmenstein_runtime>  (327) 
6.096345901489258

>  <fragmenstein_outcome>  (327) 
too moved

>  <fragmenstein_mode>  (327) 
expansion

>  <fragmenstein_error>  (327) 


$$$$
C2563-P173
     RDKit          3D

 50 52  0  0  0  0  0  0  0  0999 V2000
  -14.4548  -24.5308   24.8288 C   0  0  0  0  0  0  0  0  0  0  0  0
  -14.1254  -25.8172   25.5539 C   0  0  0  0  0  0  0  0  0  0  0  0
  -13.9646  -26.8434   25.0097 O   0  0  0  0  0  0  0  0  0  0  0  0
  -14.1545  -25.4726   27.0823 N   0  0  0  0  0  0  0  0  0  0  0  0
  -14.0893  -26.3046   28.1981 C   0  0  0  0  0  0  0  0  0  0  0  0
  -13.7696  -27.6329   27.9811 C   0  0  0  0  0  0  0  0  0  0  0  0
  -13.6943  -28.5342   28.9687 N   0  0  0  0  0  0  0  0  0  0  0  0
  -14.0153  -28.1175   30.2120 C   0  0  0  0  0  0  0  0  0  0  0  0
  -14.3367  -26.8179   30.5299 C   0  0  0  0  0  0  0  0  0  0  0  0
  -14.2788  -25.8480   29.5451 C   0  0  0  0  0  0  0  0  0  0  0  0
  -14.3086  -24.4003   30.0199 C   0  0  0  0  0  0  0  0  0  0  0  0
  -14.8882  -23.9382   31.4750 C   0  0  0  0  0  0  0  0  0  0  0  0
  -15.4753  -22.5859   31.2995 N   0  0  0  0  0  0  0  0  0  0  0  0
  -15.9615  -21.4591   32.3770 S   0  0  0  0  0  0  0  0  0  0  0  0
  -14.8841  -21.1431   33.2751 O   0  0  0  0  0  0  0  0  0  0  0  0
  -16.5616  -20.4302   31.5495 O   0  0  0  0  0  0  0  0  0  0  0  0
  -17.1923  -22.2027   33.2379 N   0  0  0  0  0  0  0  0  0  0  0  0
  -18.3593  -22.6775   32.4439 C   0  0  0  0  0  0  0  0  0  0  0  0
  -19.3694  -23.3997   33.3559 C   0  0  0  0  0  0  0  0  0  0  0  0
  -19.8583  -22.5657   34.4665 N   0  0  0  0  0  0  0  0  0  0  0  0
  -18.6985  -22.0799   35.2395 C   0  0  0  0  0  0  0  0  0  0  0  0
  -17.6621  -21.3353   34.3793 C   0  0  0  0  0  0  0  0  0  0  0  0
  -13.0691  -23.6348   29.7148 C   0  0  0  0  0  0  0  0  0  0  0  0
  -12.5174  -22.5403   30.3305 C   0  0  0  0  0  0  0  0  0  0  0  0
  -11.7175  -21.9975   29.3331 C   0  0  0  0  0  0  0  0  0  0  0  0
  -11.6187  -22.7577   28.2491 N   0  0  0  0  0  0  0  0  0  0  0  0
  -12.3381  -23.8169   28.5755 N   0  0  0  0  0  0  0  0  0  0  0  0
  -14.4625  -24.7109   23.7507 H   0  0  0  0  0  0  0  0  0  0  0  0
  -15.4532  -24.1904   25.1126 H   0  0  0  0  0  0  0  0  0  0  0  0
  -13.7061  -23.7692   25.0577 H   0  0  0  0  0  0  0  0  0  0  0  0
  -14.3954  -24.5124   27.2035 H   0  0  0  0  0  0  0  0  0  0  0  0
  -13.5550  -28.0400   27.0004 H   0  0  0  0  0  0  0  0  0  0  0  0
  -14.0044  -28.8912   30.9713 H   0  0  0  0  0  0  0  0  0  0  0  0
  -14.5969  -26.5636   31.5419 H   0  0  0  0  0  0  0  0  0  0  0  0
  -14.9704  -23.9963   29.2771 H   0  0  0  0  0  0  0  0  0  0  0  0
  -15.6960  -24.6129   31.7747 H   0  0  0  0  0  0  0  0  0  0  0  0
  -14.1041  -23.9411   32.2375 H   0  0  0  0  0  0  0  0  0  0  0  0
  -16.1577  -22.6103   30.5412 H   0  0  0  0  0  0  0  0  0  0  0  0
  -18.8473  -21.8333   31.9426 H   0  0  0  0  0  0  0  0  0  0  0  0
  -18.0293  -23.3917   31.6854 H   0  0  0  0  0  0  0  0  0  0  0  0
  -20.2292  -23.7190   32.7566 H   0  0  0  0  0  0  0  0  0  0  0  0
  -18.9156  -24.3112   33.7647 H   0  0  0  0  0  0  0  0  0  0  0  0
  -20.3394  -21.7515   34.0805 H   0  0  0  0  0  0  0  0  0  0  0  0
  -18.2220  -22.9326   35.7390 H   0  0  0  0  0  0  0  0  0  0  0  0
  -19.0597  -21.4131   36.0301 H   0  0  0  0  0  0  0  0  0  0  0  0
  -16.8126  -21.0743   35.0196 H   0  0  0  0  0  0  0  0  0  0  0  0
  -18.1010  -20.4107   33.9842 H   0  0  0  0  0  0  0  0  0  0  0  0
  -12.7577  -22.1039   31.2909 H   0  0  0  0  0  0  0  0  0  0  0  0
  -11.1711  -21.0840   29.3800 H   0  0  0  0  0  0  0  0  0  0  0  0
  -12.3512  -24.5873   27.9163 H   0  0  0  0  0  0  0  0  0  0  0  0
  1  2  1  0
  2  3  2  0
  2  4  1  0
  4  5  1  0
  5  6  2  0
  6  7  1  0
  7  8  2  0
  8  9  1  0
  9 10  2  0
 10 11  1  0
 11 12  1  0
 12 13  1  0
 13 14  1  0
 14 15  2  0
 14 16  2  0
 14 17  1  0
 17 18  1  0
 18 19  1  0
 19 20  1  0
 20 21  1  0
 21 22  1  0
 11 23  1  0
 23 24  2  0
 24 25  1  0
 25 26  2  0
 26 27  1  0
 10  5  1  0
 22 17  1  0
 27 23  1  0
  1 28  1  0
  1 29  1  0
  1 30  1  0
  4 31  1  0
  6 32  1  0
  8 33  1  0
  9 34  1  0
 11 35  1  0
 12 36  1  0
 12 37  1  0
 13 38  1  0
 18 39  1  0
 18 40  1  0
 19 41  1  0
 19 42  1  0
 20 43  1  0
 21 44  1  0
 21 45  1  0
 22 46  1  0
 22 47  1  0
 24 48  1  0
 25 49  1  0
 27 50  1  0
M  END
>  <Energy>  (328) 
-35.177781999789602

>  <compound_id>  (328) 
2563

>  <target_id>  (328) 
1

>  <reference_id>  (328) 
173

>  <inspiration_ids>  (328) 
[173, 39]

>  <energy_score>  (328) 
-43.28692577836085

>  <distance_score>  (328) 
2.5941448666550273

>  <path>  (328) 
/opt/xchem-fragalysis-2/maxwin/BulkDock/SCRATCH/505736/C2563-P173/C2563-P173.minimised.mol

>  <scratch_subdir>  (328) 
/opt/xchem-fragalysis-2/maxwin/BulkDock/SCRATCH/505736/C2563-P173

>  <fragmenstein_runtime>  (328) 
12.048055648803711

>  <fragmenstein_outcome>  (328) 
too moved

>  <fragmenstein_mode>  (328) 
expansion

>  <fragmenstein_error>  (328) 


$$$$
C2563-P39
     RDKit          3D

 50 52  0  0  0  0  0  0  0  0999 V2000
  -13.4324  -26.0325   26.0557 C   0  0  0  0  0  0  0  0  0  0  0  0
  -13.5110  -25.6972   27.5272 C   0  0  0  0  0  0  0  0  0  0  0  0
  -14.5215  -25.3829   28.0240 O   0  0  0  0  0  0  0  0  0  0  0  0
  -12.0763  -25.7551   28.1158 N   0  0  0  0  0  0  0  0  0  0  0  0
  -11.6107  -25.5322   29.4443 C   0  0  0  0  0  0  0  0  0  0  0  0
  -10.2838  -25.9181   29.5516 C   0  0  0  0  0  0  0  0  0  0  0  0
   -9.5294  -25.7822   30.6488 N   0  0  0  0  0  0  0  0  0  0  0  0
  -10.1149  -25.3244   31.7623 C   0  0  0  0  0  0  0  0  0  0  0  0
  -11.3954  -24.8353   31.7794 C   0  0  0  0  0  0  0  0  0  0  0  0
  -12.1371  -24.8311   30.5856 C   0  0  0  0  0  0  0  0  0  0  0  0
  -13.1600  -23.6752   30.5008 C   0  0  0  0  0  0  0  0  0  0  0  0
  -13.7497  -22.8961   31.7916 C   0  0  0  0  0  0  0  0  0  0  0  0
  -14.9505  -22.0974   31.3771 N   0  0  0  0  0  0  0  0  0  0  0  0
  -15.7821  -21.0280   32.3253 S   0  0  0  0  0  0  0  0  0  0  0  0
  -14.8562  -20.4064   33.2373 O   0  0  0  0  0  0  0  0  0  0  0  0
  -16.5565  -20.2217   31.4019 O   0  0  0  0  0  0  0  0  0  0  0  0
  -16.8516  -21.9573   33.2315 N   0  0  0  0  0  0  0  0  0  0  0  0
  -17.9808  -22.5722   32.4682 C   0  0  0  0  0  0  0  0  0  0  0  0
  -18.8605  -23.4357   33.3907 C   0  0  0  0  0  0  0  0  0  0  0  0
  -19.4301  -22.6787   34.5209 N   0  0  0  0  0  0  0  0  0  0  0  0
  -18.3132  -22.0775   35.2771 C   0  0  0  0  0  0  0  0  0  0  0  0
  -17.3942  -21.1928   34.4129 C   0  0  0  0  0  0  0  0  0  0  0  0
  -12.4851  -22.7413   29.5806 C   0  0  0  0  0  0  0  0  0  0  0  0
  -11.5362  -21.7740   29.7099 C   0  0  0  0  0  0  0  0  0  0  0  0
  -10.9774  -21.7577   28.4264 C   0  0  0  0  0  0  0  0  0  0  0  0
  -11.5616  -22.5641   27.5555 N   0  0  0  0  0  0  0  0  0  0  0  0
  -12.5690  -23.0082   28.2555 N   0  0  0  0  0  0  0  0  0  0  0  0
  -13.6475  -25.1207   25.4898 H   0  0  0  0  0  0  0  0  0  0  0  0
  -12.4513  -26.3916   25.7442 H   0  0  0  0  0  0  0  0  0  0  0  0
  -14.1960  -26.7777   25.8231 H   0  0  0  0  0  0  0  0  0  0  0  0
  -11.4177  -25.9949   27.3815 H   0  0  0  0  0  0  0  0  0  0  0  0
   -9.7418  -26.3598   28.7208 H   0  0  0  0  0  0  0  0  0  0  0  0
   -9.4893  -25.3185   32.6498 H   0  0  0  0  0  0  0  0  0  0  0  0
  -11.7518  -24.3653   32.6904 H   0  0  0  0  0  0  0  0  0  0  0  0
  -13.9849  -24.0480   29.9147 H   0  0  0  0  0  0  0  0  0  0  0  0
  -14.0318  -23.5990   32.5795 H   0  0  0  0  0  0  0  0  0  0  0  0
  -12.9924  -22.2169   32.1980 H   0  0  0  0  0  0  0  0  0  0  0  0
  -15.6422  -22.6953   30.9154 H   0  0  0  0  0  0  0  0  0  0  0  0
  -18.5946  -21.7879   32.0089 H   0  0  0  0  0  0  0  0  0  0  0  0
  -17.6040  -23.2173   31.6795 H   0  0  0  0  0  0  0  0  0  0  0  0
  -19.6858  -23.8585   32.8071 H   0  0  0  0  0  0  0  0  0  0  0  0
  -18.2805  -24.2833   33.7769 H   0  0  0  0  0  0  0  0  0  0  0  0
  -20.0009  -21.9198   34.1478 H   0  0  0  0  0  0  0  0  0  0  0  0
  -17.7254  -22.8780   35.7436 H   0  0  0  0  0  0  0  0  0  0  0  0
  -18.7288  -21.4764   36.0934 H   0  0  0  0  0  0  0  0  0  0  0  0
  -16.5664  -20.8532   35.0443 H   0  0  0  0  0  0  0  0  0  0  0  0
  -17.9490  -20.3151   34.0589 H   0  0  0  0  0  0  0  0  0  0  0  0
  -11.1722  -21.3073   30.6127 H   0  0  0  0  0  0  0  0  0  0  0  0
  -10.1387  -21.2232   28.0459 H   0  0  0  0  0  0  0  0  0  0  0  0
  -13.2042  -23.6298   27.7956 H   0  0  0  0  0  0  0  0  0  0  0  0
  1  2  1  0
  2  3  2  0
  2  4  1  0
  4  5  1  0
  5  6  2  0
  6  7  1  0
  7  8  2  0
  8  9  1  0
  9 10  2  0
 10 11  1  0
 11 12  1  0
 12 13  1  0
 13 14  1  0
 14 15  2  0
 14 16  2  0
 14 17  1  0
 17 18  1  0
 18 19  1  0
 19 20  1  0
 20 21  1  0
 21 22  1  0
 11 23  1  0
 23 24  2  0
 24 25  1  0
 25 26  2  0
 26 27  1  0
 10  5  1  0
 22 17  1  0
 27 23  1  0
  1 28  1  0
  1 29  1  0
  1 30  1  0
  4 31  1  0
  6 32  1  0
  8 33  1  0
  9 34  1  0
 11 35  1  0
 12 36  1  0
 12 37  1  0
 13 38  1  0
 18 39  1  0
 18 40  1  0
 19 41  1  0
 19 42  1  0
 20 43  1  0
 21 44  1  0
 21 45  1  0
 22 46  1  0
 22 47  1  0
 24 48  1  0
 25 49  1  0
 27 50  1  0
M  END
>  <Energy>  (329) 
-16.024723661340897

>  <compound_id>  (329) 
2563

>  <target_id>  (329) 
1

>  <reference_id>  (329) 
39

>  <inspiration_ids>  (329) 
[173, 39]

>  <energy_score>  (329) 
-24.133867439910674

>  <distance_score>  (329) 
1.7897906084005804

>  <path>  (329) 
/opt/xchem-fragalysis-2/maxwin/BulkDock/SCRATCH/505736/C2563-P39/C2563-P39.minimised.mol

>  <scratch_subdir>  (329) 
/opt/xchem-fragalysis-2/maxwin/BulkDock/SCRATCH/505736/C2563-P39

>  <fragmenstein_runtime>  (329) 
7.12050986289978

>  <fragmenstein_outcome>  (329) 
too moved

>  <fragmenstein_mode>  (329) 
expansion

>  <fragmenstein_error>  (329) 


$$$$
C2564-P173
     RDKit          3D

 54 56  0  0  0  0  0  0  0  0999 V2000
  -14.0985  -30.5528   30.7923 O   0  0  0  0  0  0  0  0  0  0  0  0
  -14.9990  -29.8759   30.3843 C   0  0  0  0  0  0  0  0  0  0  0  0
  -16.1849  -30.4109   30.0193 O   0  0  0  0  0  0  0  0  0  0  0  0
  -15.1072  -28.4687   30.2443 N   0  0  0  0  0  0  0  0  0  0  0  0
  -14.6265  -28.0237   28.8501 C   0  0  0  0  0  0  0  0  0  0  0  0
  -14.9946  -26.5365   28.7115 C   0  0  0  0  0  0  0  0  0  0  0  0
  -14.0717  -25.8344   27.6810 C   0  0  0  0  0  0  0  0  0  0  0  0
  -14.3650  -26.1712   26.2216 C   0  0  0  0  0  0  0  0  0  0  0  0
  -15.8288  -25.9746   25.8672 C   0  0  0  0  0  0  0  0  0  0  0  0
  -16.7306  -26.7596   26.8089 C   0  0  0  0  0  0  0  0  0  0  0  0
  -16.4704  -26.4259   28.2811 C   0  0  0  0  0  0  0  0  0  0  0  0
  -14.6566  -26.0891   30.1543 C   0  0  0  0  0  0  0  0  0  0  0  0
  -15.7028  -25.4717   31.1028 C   0  0  0  0  0  0  0  0  0  0  0  0
  -15.2490  -24.1029   31.6901 C   0  0  0  0  0  0  0  0  0  0  0  0
  -16.4745  -23.3079   31.9650 N   0  0  0  0  0  0  0  0  0  0  0  0
  -16.3051  -21.6973   32.4019 S   0  0  0  0  0  0  0  0  0  0  0  0
  -15.1472  -21.5291   33.2400 O   0  0  0  0  0  0  0  0  0  0  0  0
  -16.4933  -20.8987   31.2086 O   0  0  0  0  0  0  0  0  0  0  0  0
  -17.6824  -21.5512   33.3477 N   0  0  0  0  0  0  0  0  0  0  0  0
  -18.9873  -21.8613   32.7032 C   0  0  0  0  0  0  0  0  0  0  0  0
  -20.0690  -21.9943   33.7912 C   0  0  0  0  0  0  0  0  0  0  0  0
  -20.2205  -20.7707   34.5895 N   0  0  0  0  0  0  0  0  0  0  0  0
  -18.9150  -20.3643   35.1482 C   0  0  0  0  0  0  0  0  0  0  0  0
  -17.7902  -20.2599   34.0968 C   0  0  0  0  0  0  0  0  0  0  0  0
  -14.2005  -27.3962   30.6489 N   0  0  0  0  0  0  0  0  0  0  0  0
  -16.7686  -29.6457   29.8629 H   0  0  0  0  0  0  0  0  0  0  0  0
  -13.5594  -28.2708   28.6981 H   0  0  0  0  0  0  0  0  0  0  0  0
  -15.1568  -28.6491   28.1208 H   0  0  0  0  0  0  0  0  0  0  0  0
  -13.0222  -26.0817   27.8608 H   0  0  0  0  0  0  0  0  0  0  0  0
  -14.1473  -24.7528   27.8228 H   0  0  0  0  0  0  0  0  0  0  0  0
  -13.7421  -25.5480   25.5697 H   0  0  0  0  0  0  0  0  0  0  0  0
  -14.0804  -27.2124   26.0253 H   0  0  0  0  0  0  0  0  0  0  0  0
  -16.0040  -26.2990   24.8350 H   0  0  0  0  0  0  0  0  0  0  0  0
  -16.0866  -24.9119   25.9092 H   0  0  0  0  0  0  0  0  0  0  0  0
  -16.5938  -27.8331   26.6362 H   0  0  0  0  0  0  0  0  0  0  0  0
  -17.7787  -26.5421   26.5712 H   0  0  0  0  0  0  0  0  0  0  0  0
  -17.1084  -27.0651   28.9039 H   0  0  0  0  0  0  0  0  0  0  0  0
  -16.8196  -25.4120   28.4376 H   0  0  0  0  0  0  0  0  0  0  0  0
  -13.7947  -25.4169   30.1425 H   0  0  0  0  0  0  0  0  0  0  0  0
  -16.6723  -25.3827   30.6087 H   0  0  0  0  0  0  0  0  0  0  0  0
  -15.9049  -26.1321   31.9571 H   0  0  0  0  0  0  0  0  0  0  0  0
  -14.6785  -24.2558   32.6110 H   0  0  0  0  0  0  0  0  0  0  0  0
  -14.6351  -23.5563   30.9661 H   0  0  0  0  0  0  0  0  0  0  0  0
  -16.9983  -23.2717   31.0805 H   0  0  0  0  0  0  0  0  0  0  0  0
  -19.2550  -21.0724   31.9899 H   0  0  0  0  0  0  0  0  0  0  0  0
  -18.9430  -22.8104   32.1618 H   0  0  0  0  0  0  0  0  0  0  0  0
  -21.0289  -22.2220   33.3155 H   0  0  0  0  0  0  0  0  0  0  0  0
  -19.8273  -22.8349   34.4538 H   0  0  0  0  0  0  0  0  0  0  0  0
  -20.8697  -20.9352   35.3570 H   0  0  0  0  0  0  0  0  0  0  0  0
  -18.6213  -21.0869   35.9201 H   0  0  0  0  0  0  0  0  0  0  0  0
  -19.0333  -19.3944   35.6432 H   0  0  0  0  0  0  0  0  0  0  0  0
  -16.8501  -20.0447   34.6154 H   0  0  0  0  0  0  0  0  0  0  0  0
  -17.9985  -19.4414   33.3974 H   0  0  0  0  0  0  0  0  0  0  0  0
  -14.1019  -27.3866   31.6782 H   0  0  0  0  0  0  0  0  0  0  0  0
  1  2  2  0
  2  3  1  0
  2  4  1  0
  4  5  1  0
  5  6  1  0
  6  7  1  0
  7  8  1  0
  8  9  1  0
  9 10  1  0
 10 11  1  0
  6 12  1  0
 12 13  1  0
 13 14  1  0
 14 15  1  0
 15 16  1  0
 16 17  2  0
 16 18  2  0
 16 19  1  0
 19 20  1  0
 20 21  1  0
 21 22  1  0
 22 23  1  0
 23 24  1  0
 12 25  1  0
 25  4  1  0
 11  6  1  0
 24 19  1  0
  3 26  1  0
  5 27  1  0
  5 28  1  0
  7 29  1  0
  7 30  1  0
  8 31  1  0
  8 32  1  0
  9 33  1  0
  9 34  1  0
 10 35  1  0
 10 36  1  0
 11 37  1  0
 11 38  1  0
 12 39  1  0
 13 40  1  0
 13 41  1  0
 14 42  1  0
 14 43  1  0
 15 44  1  0
 20 45  1  0
 20 46  1  0
 21 47  1  0
 21 48  1  0
 22 49  1  0
 23 50  1  0
 23 51  1  0
 24 52  1  0
 24 53  1  0
 25 54  1  0
M  END
>  <Energy>  (330) 
-48.850790561662784

>  <compound_id>  (330) 
2564

>  <target_id>  (330) 
1

>  <reference_id>  (330) 
173

>  <inspiration_ids>  (330) 
[173, 42]

>  <energy_score>  (330) 
-30.620141231447292

>  <distance_score>  (330) 
3.6350410576270624

>  <path>  (330) 
/opt/xchem-fragalysis-2/maxwin/BulkDock/SCRATCH/505736/C2564-P173/C2564-P173.minimised.mol

>  <scratch_subdir>  (330) 
/opt/xchem-fragalysis-2/maxwin/BulkDock/SCRATCH/505736/C2564-P173

>  <fragmenstein_runtime>  (330) 
24.356295347213745

>  <fragmenstein_outcome>  (330) 
too moved

>  <fragmenstein_mode>  (330) 
expansion

>  <fragmenstein_error>  (330) 


$$$$
C2564-P42
     RDKit          3D

 54 56  0  0  0  0  0  0  0  0999 V2000
   -8.9070  -26.8077   31.7023 O   0  0  0  0  0  0  0  0  0  0  0  0
   -9.9498  -26.6576   31.1344 C   0  0  0  0  0  0  0  0  0  0  0  0
  -10.5840  -27.7195   30.6040 O   0  0  0  0  0  0  0  0  0  0  0  0
  -10.7430  -25.5213   30.9736 N   0  0  0  0  0  0  0  0  0  0  0  0
  -10.3527  -24.7785   29.6939 C   0  0  0  0  0  0  0  0  0  0  0  0
  -11.4471  -23.7286   29.3635 C   0  0  0  0  0  0  0  0  0  0  0  0
  -10.9900  -22.6950   28.3027 C   0  0  0  0  0  0  0  0  0  0  0  0
  -12.0304  -22.3612   27.2292 C   0  0  0  0  0  0  0  0  0  0  0  0
  -12.4323  -23.5544   26.3818 C   0  0  0  0  0  0  0  0  0  0  0  0
  -12.2489  -24.8545   27.1372 C   0  0  0  0  0  0  0  0  0  0  0  0
  -12.4718  -24.6567   28.6471 C   0  0  0  0  0  0  0  0  0  0  0  0
  -11.4456  -23.1652   30.8645 C   0  0  0  0  0  0  0  0  0  0  0  0
  -12.2077  -22.0871   31.7502 C   0  0  0  0  0  0  0  0  0  0  0  0
  -12.6444  -22.2394   33.2332 C   0  0  0  0  0  0  0  0  0  0  0  0
  -14.1120  -22.4575   33.4223 N   0  0  0  0  0  0  0  0  0  0  0  0
  -15.1938  -21.1918   33.3434 S   0  0  0  0  0  0  0  0  0  0  0  0
  -14.6750  -20.0787   34.1001 O   0  0  0  0  0  0  0  0  0  0  0  0
  -15.6098  -21.0368   31.9726 O   0  0  0  0  0  0  0  0  0  0  0  0
  -16.4882  -21.8516   34.1955 N   0  0  0  0  0  0  0  0  0  0  0  0
  -17.1470  -23.0287   33.5588 C   0  0  0  0  0  0  0  0  0  0  0  0
  -18.1859  -23.6293   34.5252 C   0  0  0  0  0  0  0  0  0  0  0  0
  -19.2246  -22.6675   34.9331 N   0  0  0  0  0  0  0  0  0  0  0  0
  -18.5793  -21.4604   35.4894 C   0  0  0  0  0  0  0  0  0  0  0  0
  -17.5287  -20.8322   34.5532 C   0  0  0  0  0  0  0  0  0  0  0  0
  -10.6097  -24.1537   31.5445 N   0  0  0  0  0  0  0  0  0  0  0  0
  -10.0108  -28.4613   30.8969 H   0  0  0  0  0  0  0  0  0  0  0  0
   -9.3020  -24.4983   29.7141 H   0  0  0  0  0  0  0  0  0  0  0  0
  -10.3028  -25.5549   28.9138 H   0  0  0  0  0  0  0  0  0  0  0  0
  -10.1040  -23.1060   27.8142 H   0  0  0  0  0  0  0  0  0  0  0  0
  -10.7025  -21.7500   28.7651 H   0  0  0  0  0  0  0  0  0  0  0  0
  -12.9082  -21.9377   27.7072 H   0  0  0  0  0  0  0  0  0  0  0  0
  -11.6741  -21.5752   26.5652 H   0  0  0  0  0  0  0  0  0  0  0  0
  -11.8379  -23.5875   25.4616 H   0  0  0  0  0  0  0  0  0  0  0  0
  -13.4767  -23.4388   26.0687 H   0  0  0  0  0  0  0  0  0  0  0  0
  -11.2446  -25.2509   26.9476 H   0  0  0  0  0  0  0  0  0  0  0  0
  -12.9510  -25.6028   26.7505 H   0  0  0  0  0  0  0  0  0  0  0  0
  -12.4441  -25.6663   29.0531 H   0  0  0  0  0  0  0  0  0  0  0  0
  -13.4604  -24.2671   28.7253 H   0  0  0  0  0  0  0  0  0  0  0  0
  -10.7540  -22.3649   30.6828 H   0  0  0  0  0  0  0  0  0  0  0  0
  -13.0723  -21.7944   31.2058 H   0  0  0  0  0  0  0  0  0  0  0  0
  -11.5552  -21.2021   31.7960 H   0  0  0  0  0  0  0  0  0  0  0  0
  -12.1323  -23.0798   33.7043 H   0  0  0  0  0  0  0  0  0  0  0  0
  -12.3692  -21.3435   33.7992 H   0  0  0  0  0  0  0  0  0  0  0  0
  -14.3741  -23.1487   32.7062 H   0  0  0  0  0  0  0  0  0  0  0  0
  -17.6338  -22.7325   32.6220 H   0  0  0  0  0  0  0  0  0  0  0  0
  -16.4083  -23.8034   33.3357 H   0  0  0  0  0  0  0  0  0  0  0  0
  -18.6729  -24.4825   34.0409 H   0  0  0  0  0  0  0  0  0  0  0  0
  -17.6769  -24.0127   35.4189 H   0  0  0  0  0  0  0  0  0  0  0  0
  -19.8001  -23.0887   35.6607 H   0  0  0  0  0  0  0  0  0  0  0  0
  -18.1057  -21.7185   36.4454 H   0  0  0  0  0  0  0  0  0  0  0  0
  -19.3561  -20.7188   35.7048 H   0  0  0  0  0  0  0  0  0  0  0  0
  -17.0640  -19.9911   35.0784 H   0  0  0  0  0  0  0  0  0  0  0  0
  -18.0104  -20.4539   33.6434 H   0  0  0  0  0  0  0  0  0  0  0  0
  -10.9440  -24.2589   32.5065 H   0  0  0  0  0  0  0  0  0  0  0  0
  1  2  2  0
  2  3  1  0
  2  4  1  0
  4  5  1  0
  5  6  1  0
  6  7  1  0
  7  8  1  0
  8  9  1  0
  9 10  1  0
 10 11  1  0
  6 12  1  0
 12 13  1  0
 13 14  1  0
 14 15  1  0
 15 16  1  0
 16 17  2  0
 16 18  2  0
 16 19  1  0
 19 20  1  0
 20 21  1  0
 21 22  1  0
 22 23  1  0
 23 24  1  0
 12 25  1  0
 25  4  1  0
 11  6  1  0
 24 19  1  0
  3 26  1  0
  5 27  1  0
  5 28  1  0
  7 29  1  0
  7 30  1  0
  8 31  1  0
  8 32  1  0
  9 33  1  0
  9 34  1  0
 10 35  1  0
 10 36  1  0
 11 37  1  0
 11 38  1  0
 12 39  1  0
 13 40  1  0
 13 41  1  0
 14 42  1  0
 14 43  1  0
 15 44  1  0
 20 45  1  0
 20 46  1  0
 21 47  1  0
 21 48  1  0
 22 49  1  0
 23 50  1  0
 23 51  1  0
 24 52  1  0
 24 53  1  0
 25 54  1  0
M  END
>  <Energy>  (331) 
11.763133549078962

>  <compound_id>  (331) 
2564

>  <target_id>  (331) 
1

>  <reference_id>  (331) 
42

>  <inspiration_ids>  (331) 
[173, 42]

>  <energy_score>  (331) 
29.99378287930176

>  <distance_score>  (331) 
2.752530208962753

>  <path>  (331) 
/opt/xchem-fragalysis-2/maxwin/BulkDock/SCRATCH/505736/C2564-P42/C2564-P42.minimised.mol

>  <scratch_subdir>  (331) 
/opt/xchem-fragalysis-2/maxwin/BulkDock/SCRATCH/505736/C2564-P42

>  <fragmenstein_runtime>  (331) 
25.336379766464233

>  <fragmenstein_outcome>  (331) 
too moved

>  <fragmenstein_mode>  (331) 
expansion

>  <fragmenstein_error>  (331) 


$$$$
C2565-P173
     RDKit          3D

 57 59  0  0  0  0  0  0  0  0999 V2000
  -11.1693  -24.6302   26.8191 C   0  0  0  0  0  0  0  0  0  0  0  0
  -12.1240  -23.4656   27.0002 C   0  0  0  0  0  0  0  0  0  0  0  0
  -12.1128  -22.8154   28.3886 C   0  0  0  0  0  0  0  0  0  0  0  0
  -12.6133  -23.6846   29.5383 C   0  0  0  0  0  0  0  0  0  0  0  0
  -13.7129  -24.6183   29.1758 N   0  0  0  0  0  0  0  0  0  0  0  0
  -14.2319  -25.0132   30.4917 C   0  0  0  0  0  0  0  0  0  0  0  0
  -13.9212  -24.0109   31.4815 N   0  0  0  0  0  0  0  0  0  0  0  0
  -14.7716  -23.6993   32.5477 C   0  0  0  0  0  0  0  0  0  0  0  0
  -14.9068  -22.4281   32.9713 C   0  0  0  0  0  0  0  0  0  0  0  0
  -15.7061  -21.7585   31.9867 N   0  0  0  0  0  0  0  0  0  0  0  0
  -16.6900  -20.5246   32.4589 S   0  0  0  0  0  0  0  0  0  0  0  0
  -15.9643  -19.6245   33.3199 O   0  0  0  0  0  0  0  0  0  0  0  0
  -17.3057  -20.0645   31.2333 O   0  0  0  0  0  0  0  0  0  0  0  0
  -17.8123  -21.3691   33.3640 N   0  0  0  0  0  0  0  0  0  0  0  0
  -18.6682  -22.3506   32.6487 C   0  0  0  0  0  0  0  0  0  0  0  0
  -19.3780  -23.2457   33.6817 C   0  0  0  0  0  0  0  0  0  0  0  0
  -20.1980  -22.4770   34.6329 N   0  0  0  0  0  0  0  0  0  0  0  0
  -19.3758  -21.4297   35.2744 C   0  0  0  0  0  0  0  0  0  0  0  0
  -18.6402  -20.5211   34.2693 C   0  0  0  0  0  0  0  0  0  0  0  0
  -13.7639  -21.6772   33.4694 C   0  0  0  0  0  0  0  0  0  0  0  0
  -12.5148  -21.6171   32.9558 C   0  0  0  0  0  0  0  0  0  0  0  0
  -11.4474  -20.9391   33.5332 N   0  0  0  0  0  0  0  0  0  0  0  0
  -11.5774  -20.0745   34.6099 N   0  0  0  0  0  0  0  0  0  0  0  0
  -11.3413  -20.8022   35.8435 C   0  0  0  0  0  0  0  0  0  0  0  0
  -12.1093  -22.3230   31.6771 C   0  0  0  0  0  0  0  0  0  0  0  0
  -13.1569  -22.9533   30.7871 C   0  0  0  0  0  0  0  0  0  0  0  0
  -11.5639  -25.5338   27.2884 H   0  0  0  0  0  0  0  0  0  0  0  0
  -11.0474  -24.8526   25.7540 H   0  0  0  0  0  0  0  0  0  0  0  0
  -10.1807  -24.4104   27.2314 H   0  0  0  0  0  0  0  0  0  0  0  0
  -11.8600  -22.6940   26.2763 H   0  0  0  0  0  0  0  0  0  0  0  0
  -13.1320  -23.7901   26.7251 H   0  0  0  0  0  0  0  0  0  0  0  0
  -11.0962  -22.4769   28.6046 H   0  0  0  0  0  0  0  0  0  0  0  0
  -12.6930  -21.9000   28.3621 H   0  0  0  0  0  0  0  0  0  0  0  0
  -11.7518  -24.2492   29.8511 H   0  0  0  0  0  0  0  0  0  0  0  0
  -14.4597  -24.0702   28.7642 H   0  0  0  0  0  0  0  0  0  0  0  0
  -15.3115  -25.1831   30.4036 H   0  0  0  0  0  0  0  0  0  0  0  0
  -13.8076  -25.9708   30.8040 H   0  0  0  0  0  0  0  0  0  0  0  0
  -15.6694  -24.3073   32.4443 H   0  0  0  0  0  0  0  0  0  0  0  0
  -16.1169  -22.3488   31.2603 H   0  0  0  0  0  0  0  0  0  0  0  0
  -18.0679  -22.9940   32.0001 H   0  0  0  0  0  0  0  0  0  0  0  0
  -19.4044  -21.8272   32.0270 H   0  0  0  0  0  0  0  0  0  0  0  0
  -20.0254  -23.9560   33.1564 H   0  0  0  0  0  0  0  0  0  0  0  0
  -18.6340  -23.8324   34.2354 H   0  0  0  0  0  0  0  0  0  0  0  0
  -20.5521  -23.1027   35.3554 H   0  0  0  0  0  0  0  0  0  0  0  0
  -18.6434  -21.9088   35.9366 H   0  0  0  0  0  0  0  0  0  0  0  0
  -20.0262  -20.8138   35.9048 H   0  0  0  0  0  0  0  0  0  0  0  0
  -18.0075  -19.8297   34.8351 H   0  0  0  0  0  0  0  0  0  0  0  0
  -19.3587  -19.9369   33.6821 H   0  0  0  0  0  0  0  0  0  0  0  0
  -13.9697  -21.1415   34.3926 H   0  0  0  0  0  0  0  0  0  0  0  0
  -10.5455  -20.9755   33.0369 H   0  0  0  0  0  0  0  0  0  0  0  0
  -10.9423  -19.2786   34.5139 H   0  0  0  0  0  0  0  0  0  0  0  0
  -10.7058  -21.6768   35.7116 H   0  0  0  0  0  0  0  0  0  0  0  0
  -12.2952  -21.1417   36.2582 H   0  0  0  0  0  0  0  0  0  0  0  0
  -10.8853  -20.1423   36.5879 H   0  0  0  0  0  0  0  0  0  0  0  0
  -11.4036  -23.0941   31.9770 H   0  0  0  0  0  0  0  0  0  0  0  0
  -11.5838  -21.5924   31.0551 H   0  0  0  0  0  0  0  0  0  0  0  0
  -13.8374  -22.1779   30.4447 H   0  0  0  0  0  0  0  0  0  0  0  0
  1  2  1  0
  2  3  1  0
  3  4  1  0
  4  5  1  0
  5  6  1  0
  6  7  1  0
  7  8  1  0
  8  9  2  0
  9 10  1  0
 10 11  1  0
 11 12  2  0
 11 13  2  0
 11 14  1  0
 14 15  1  0
 15 16  1  0
 16 17  1  0
 17 18  1  0
 18 19  1  0
  9 20  1  0
 20 21  2  0
 21 22  1  0
 22 23  1  0
 23 24  1  0
 21 25  1  0
 25 26  1  0
 26  4  1  0
 26  7  1  0
 19 14  1  0
  1 27  1  0
  1 28  1  0
  1 29  1  0
  2 30  1  0
  2 31  1  0
  3 32  1  0
  3 33  1  0
  4 34  1  0
  5 35  1  0
  6 36  1  0
  6 37  1  0
  8 38  1  0
 10 39  1  0
 15 40  1  0
 15 41  1  0
 16 42  1  0
 16 43  1  0
 17 44  1  0
 18 45  1  0
 18 46  1  0
 19 47  1  0
 19 48  1  0
 20 49  1  0
 22 50  1  0
 23 51  1  0
 24 52  1  0
 24 53  1  0
 24 54  1  0
 25 55  1  0
 25 56  1  0
 26 57  1  0
M  END
>  <Energy>  (332) 
15.332898159923566

>  <compound_id>  (332) 
2565

>  <target_id>  (332) 
1

>  <reference_id>  (332) 
173

>  <inspiration_ids>  (332) 
[173, 46]

>  <energy_score>  (332) 
-60.75083841762111

>  <distance_score>  (332) 
1.045749303202985

>  <path>  (332) 
/opt/xchem-fragalysis-2/maxwin/BulkDock/SCRATCH/505736/C2565-P173/C2565-P173.minimised.mol

>  <scratch_subdir>  (332) 
/opt/xchem-fragalysis-2/maxwin/BulkDock/SCRATCH/505736/C2565-P173

>  <fragmenstein_runtime>  (332) 
5.524157285690308

>  <fragmenstein_outcome>  (332) 
too moved

>  <fragmenstein_mode>  (332) 
expansion

>  <fragmenstein_error>  (332) 


$$$$
C2565-P46
     RDKit          3D

 57 59  0  0  0  0  0  0  0  0999 V2000
  -12.4307  -24.2629   25.6057 C   0  0  0  0  0  0  0  0  0  0  0  0
  -11.5412  -24.0781   26.8076 C   0  0  0  0  0  0  0  0  0  0  0  0
  -11.8549  -22.7844   27.5557 C   0  0  0  0  0  0  0  0  0  0  0  0
  -11.0795  -22.5336   28.8646 C   0  0  0  0  0  0  0  0  0  0  0  0
  -10.9553  -23.8005   29.5579 N   0  0  0  0  0  0  0  0  0  0  0  0
  -12.2854  -23.8631   30.1040 C   0  0  0  0  0  0  0  0  0  0  0  0
  -13.0257  -22.5173   30.0946 N   0  0  0  0  0  0  0  0  0  0  0  0
  -14.1225  -22.0338   30.8646 C   0  0  0  0  0  0  0  0  0  0  0  0
  -14.3113  -21.6314   32.1248 C   0  0  0  0  0  0  0  0  0  0  0  0
  -15.6539  -21.7793   32.5971 N   0  0  0  0  0  0  0  0  0  0  0  0
  -16.5141  -20.3589   32.4971 S   0  0  0  0  0  0  0  0  0  0  0  0
  -15.8659  -19.3978   33.3559 O   0  0  0  0  0  0  0  0  0  0  0  0
  -16.7358  -20.0888   31.0920 O   0  0  0  0  0  0  0  0  0  0  0  0
  -17.9508  -20.8161   33.1810 N   0  0  0  0  0  0  0  0  0  0  0  0
  -18.8613  -21.7633   32.5075 C   0  0  0  0  0  0  0  0  0  0  0  0
  -18.8610  -23.1398   33.2020 C   0  0  0  0  0  0  0  0  0  0  0  0
  -19.1250  -23.0557   34.6443 N   0  0  0  0  0  0  0  0  0  0  0  0
  -18.1420  -22.1545   35.2746 C   0  0  0  0  0  0  0  0  0  0  0  0
  -18.1322  -20.7519   34.6495 C   0  0  0  0  0  0  0  0  0  0  0  0
  -13.2684  -21.6226   33.0634 C   0  0  0  0  0  0  0  0  0  0  0  0
  -11.9926  -21.8115   32.7012 C   0  0  0  0  0  0  0  0  0  0  0  0
  -11.3150  -22.6454   33.5597 N   0  0  0  0  0  0  0  0  0  0  0  0
  -11.1305  -23.9226   33.0685 N   0  0  0  0  0  0  0  0  0  0  0  0
   -9.7794  -24.3838   33.2069 C   0  0  0  0  0  0  0  0  0  0  0  0
  -11.2522  -21.5427   31.3783 C   0  0  0  0  0  0  0  0  0  0  0  0
  -11.8710  -21.6760   29.9385 C   0  0  0  0  0  0  0  0  0  0  0  0
  -12.2385  -23.4976   24.8492 H   0  0  0  0  0  0  0  0  0  0  0  0
  -12.2279  -25.2547   25.1955 H   0  0  0  0  0  0  0  0  0  0  0  0
  -13.4895  -24.2338   25.8761 H   0  0  0  0  0  0  0  0  0  0  0  0
  -11.7102  -24.9642   27.4255 H   0  0  0  0  0  0  0  0  0  0  0  0
  -10.4977  -24.0851   26.5074 H   0  0  0  0  0  0  0  0  0  0  0  0
  -11.6581  -21.9355   26.9058 H   0  0  0  0  0  0  0  0  0  0  0  0
  -12.9284  -22.8054   27.7441 H   0  0  0  0  0  0  0  0  0  0  0  0
  -10.1277  -22.0826   28.6130 H   0  0  0  0  0  0  0  0  0  0  0  0
  -10.7183  -24.6072   29.0020 H   0  0  0  0  0  0  0  0  0  0  0  0
  -12.1915  -24.3211   31.0776 H   0  0  0  0  0  0  0  0  0  0  0  0
  -12.8165  -24.5090   29.4032 H   0  0  0  0  0  0  0  0  0  0  0  0
  -15.0462  -22.2727   30.3644 H   0  0  0  0  0  0  0  0  0  0  0  0
  -16.1089  -22.5318   32.0872 H   0  0  0  0  0  0  0  0  0  0  0  0
  -18.5942  -21.8860   31.4532 H   0  0  0  0  0  0  0  0  0  0  0  0
  -19.8711  -21.3351   32.5251 H   0  0  0  0  0  0  0  0  0  0  0  0
  -19.6294  -23.7694   32.7403 H   0  0  0  0  0  0  0  0  0  0  0  0
  -17.8996  -23.6409   33.0376 H   0  0  0  0  0  0  0  0  0  0  0  0
  -19.0363  -23.9807   35.0652 H   0  0  0  0  0  0  0  0  0  0  0  0
  -17.1419  -22.6001   35.2016 H   0  0  0  0  0  0  0  0  0  0  0  0
  -18.3783  -22.0700   36.3409 H   0  0  0  0  0  0  0  0  0  0  0  0
  -17.3593  -20.1461   35.1313 H   0  0  0  0  0  0  0  0  0  0  0  0
  -19.0859  -20.2469   34.8483 H   0  0  0  0  0  0  0  0  0  0  0  0
  -13.6072  -21.8840   34.0591 H   0  0  0  0  0  0  0  0  0  0  0  0
  -11.7953  -22.6761   34.4682 H   0  0  0  0  0  0  0  0  0  0  0  0
  -11.8192  -24.5996   33.4074 H   0  0  0  0  0  0  0  0  0  0  0  0
   -9.0590  -23.5763   33.0724 H   0  0  0  0  0  0  0  0  0  0  0  0
   -9.5740  -25.1212   32.4238 H   0  0  0  0  0  0  0  0  0  0  0  0
   -9.6197  -24.8921   34.1621 H   0  0  0  0  0  0  0  0  0  0  0  0
  -10.4394  -22.2463   31.4223 H   0  0  0  0  0  0  0  0  0  0  0  0
  -10.7225  -20.6046   31.4900 H   0  0  0  0  0  0  0  0  0  0  0  0
  -12.1655  -20.7478   29.4691 H   0  0  0  0  0  0  0  0  0  0  0  0
  1  2  1  0
  2  3  1  0
  3  4  1  0
  4  5  1  0
  5  6  1  0
  6  7  1  0
  7  8  1  0
  8  9  2  0
  9 10  1  0
 10 11  1  0
 11 12  2  0
 11 13  2  0
 11 14  1  0
 14 15  1  0
 15 16  1  0
 16 17  1  0
 17 18  1  0
 18 19  1  0
  9 20  1  0
 20 21  2  0
 21 22  1  0
 22 23  1  0
 23 24  1  0
 21 25  1  0
 25 26  1  0
 26  4  1  0
 26  7  1  0
 19 14  1  0
  1 27  1  0
  1 28  1  0
  1 29  1  0
  2 30  1  0
  2 31  1  0
  3 32  1  0
  3 33  1  0
  4 34  1  0
  5 35  1  0
  6 36  1  0
  6 37  1  0
  8 38  1  0
 10 39  1  0
 15 40  1  0
 15 41  1  0
 16 42  1  0
 16 43  1  0
 17 44  1  0
 18 45  1  0
 18 46  1  0
 19 47  1  0
 19 48  1  0
 20 49  1  0
 22 50  1  0
 23 51  1  0
 24 52  1  0
 24 53  1  0
 24 54  1  0
 25 55  1  0
 25 56  1  0
 26 57  1  0
M  END
>  <Energy>  (333) 
55.859763335406562

>  <compound_id>  (333) 
2565

>  <target_id>  (333) 
1

>  <reference_id>  (333) 
46

>  <inspiration_ids>  (333) 
[173, 46]

>  <energy_score>  (333) 
-20.223973242139436

>  <distance_score>  (333) 
1.9018258202503624

>  <path>  (333) 
/opt/xchem-fragalysis-2/maxwin/BulkDock/SCRATCH/505736/C2565-P46/C2565-P46.minimised.mol

>  <scratch_subdir>  (333) 
/opt/xchem-fragalysis-2/maxwin/BulkDock/SCRATCH/505736/C2565-P46

>  <fragmenstein_runtime>  (333) 
8.146338701248169

>  <fragmenstein_outcome>  (333) 
too moved

>  <fragmenstein_mode>  (333) 
expansion

>  <fragmenstein_error>  (333) 


$$$$
C1336-P173
     RDKit          3D

 60 63  0  0  0  0  0  0  0  0999 V2000
  -14.1047  -24.7633   25.2037 C   0  0  0  0  0  0  0  0  0  0  0  0
  -12.8734  -24.5284   26.0844 C   0  0  0  0  0  0  0  0  0  0  0  0
  -12.1472  -25.7976   26.4905 C   0  0  0  0  0  0  0  0  0  0  0  0
  -13.1228  -26.3514   27.5232 C   0  0  0  0  0  0  0  0  0  0  0  0
  -13.0140  -27.8118   27.9492 C   0  0  0  0  0  0  0  0  0  0  0  0
  -13.8404  -28.3345   28.9608 C   0  0  0  0  0  0  0  0  0  0  0  0
  -13.8554  -29.6967   29.2774 C   0  0  0  0  0  0  0  0  0  0  0  0
  -13.0584  -30.5843   28.5684 C   0  0  0  0  0  0  0  0  0  0  0  0
  -12.2563  -30.1063   27.5394 C   0  0  0  0  0  0  0  0  0  0  0  0
  -12.2464  -28.7404   27.2228 C   0  0  0  0  0  0  0  0  0  0  0  0
  -13.5459  -25.0448   28.3377 C   0  0  0  0  0  0  0  0  0  0  0  0
  -13.1246  -24.3538   29.6615 C   0  0  0  0  0  0  0  0  0  0  0  0
  -13.9679  -25.0102   30.7292 C   0  0  0  0  0  0  0  0  0  0  0  0
  -14.1480  -24.3250   32.0854 C   0  0  0  0  0  0  0  0  0  0  0  0
  -14.2568  -22.8120   32.1941 C   0  0  0  0  0  0  0  0  0  0  0  0
  -15.4455  -22.2955   31.5330 N   0  0  0  0  0  0  0  0  0  0  0  0
  -16.3455  -21.0756   32.1793 S   0  0  0  0  0  0  0  0  0  0  0  0
  -15.5065  -20.2677   33.0293 O   0  0  0  0  0  0  0  0  0  0  0  0
  -17.0795  -20.4756   31.0882 O   0  0  0  0  0  0  0  0  0  0  0  0
  -17.4172  -21.9067   33.1626 N   0  0  0  0  0  0  0  0  0  0  0  0
  -18.3408  -22.8426   32.4681 C   0  0  0  0  0  0  0  0  0  0  0  0
  -19.1848  -23.6172   33.4985 C   0  0  0  0  0  0  0  0  0  0  0  0
  -19.9515  -22.7465   34.4097 N   0  0  0  0  0  0  0  0  0  0  0  0
  -19.0139  -21.8201   35.0775 C   0  0  0  0  0  0  0  0  0  0  0  0
  -18.1687  -20.9968   34.0892 C   0  0  0  0  0  0  0  0  0  0  0  0
  -15.2251  -25.1440   30.0222 N   0  0  0  0  0  0  0  0  0  0  0  0
  -14.9469  -25.3246   28.6244 N   0  0  0  0  0  0  0  0  0  0  0  0
  -13.3318  -23.9749   27.3502 N   0  0  0  0  0  0  0  0  0  0  0  0
  -13.9288  -25.5409   24.4568 H   0  0  0  0  0  0  0  0  0  0  0  0
  -15.0033  -25.0627   25.7528 H   0  0  0  0  0  0  0  0  0  0  0  0
  -14.3654  -23.8381   24.6766 H   0  0  0  0  0  0  0  0  0  0  0  0
  -12.1893  -23.8423   25.5738 H   0  0  0  0  0  0  0  0  0  0  0  0
  -11.9962  -26.4485   25.6242 H   0  0  0  0  0  0  0  0  0  0  0  0
  -11.1704  -25.5874   26.9399 H   0  0  0  0  0  0  0  0  0  0  0  0
  -14.0109  -26.5461   26.8909 H   0  0  0  0  0  0  0  0  0  0  0  0
  -14.5078  -27.6887   29.5199 H   0  0  0  0  0  0  0  0  0  0  0  0
  -14.4997  -30.0554   30.0756 H   0  0  0  0  0  0  0  0  0  0  0  0
  -13.0708  -31.6420   28.8134 H   0  0  0  0  0  0  0  0  0  0  0  0
  -11.6357  -30.8003   26.9818 H   0  0  0  0  0  0  0  0  0  0  0  0
  -11.6117  -28.4153   26.4051 H   0  0  0  0  0  0  0  0  0  0  0  0
  -12.0553  -24.3075   29.8447 H   0  0  0  0  0  0  0  0  0  0  0  0
  -13.4170  -23.2918   29.6340 H   0  0  0  0  0  0  0  0  0  0  0  0
  -13.6163  -26.0227   30.9397 H   0  0  0  0  0  0  0  0  0  0  0  0
  -15.0116  -24.7720   32.5975 H   0  0  0  0  0  0  0  0  0  0  0  0
  -13.2814  -24.6124   32.6786 H   0  0  0  0  0  0  0  0  0  0  0  0
  -13.3726  -22.3381   31.7558 H   0  0  0  0  0  0  0  0  0  0  0  0
  -14.2659  -22.5452   33.2569 H   0  0  0  0  0  0  0  0  0  0  0  0
  -15.8613  -22.8471   30.7668 H   0  0  0  0  0  0  0  0  0  0  0  0
  -17.7705  -23.5728   31.8870 H   0  0  0  0  0  0  0  0  0  0  0  0
  -18.9996  -22.2892   31.7886 H   0  0  0  0  0  0  0  0  0  0  0  0
  -18.5353  -24.2717   34.0934 H   0  0  0  0  0  0  0  0  0  0  0  0
  -19.8875  -24.2702   32.9691 H   0  0  0  0  0  0  0  0  0  0  0  0
  -20.5983  -22.1858   33.8539 H   0  0  0  0  0  0  0  0  0  0  0  0
  -19.5901  -21.1405   35.7150 H   0  0  0  0  0  0  0  0  0  0  0  0
  -18.3566  -22.3954   35.7413 H   0  0  0  0  0  0  0  0  0  0  0  0
  -17.4670  -20.3876   34.6686 H   0  0  0  0  0  0  0  0  0  0  0  0
  -18.8154  -20.3286   33.5073 H   0  0  0  0  0  0  0  0  0  0  0  0
  -15.7942  -25.8910   30.4246 H   0  0  0  0  0  0  0  0  0  0  0  0
  -15.5413  -24.7696   28.0266 H   0  0  0  0  0  0  0  0  0  0  0  0
  -12.6068  -23.3324   27.6748 H   0  0  0  0  0  0  0  0  0  0  0  0
  1  2  1  0
  2  3  1  0
  3  4  1  0
  4  5  1  0
  5  6  2  0
  6  7  1  0
  7  8  2  0
  8  9  1  0
  9 10  2  0
  4 11  1  0
 11 12  1  0
 12 13  1  0
 13 14  1  0
 14 15  1  0
 15 16  1  0
 16 17  1  0
 17 18  2  0
 17 19  2  0
 17 20  1  0
 20 21  1  0
 21 22  1  0
 22 23  1  0
 23 24  1  0
 24 25  1  0
 13 26  1  0
 26 27  1  0
 11 28  1  0
 28  2  1  0
 10  5  1  0
 27 11  1  0
 25 20  1  0
  1 29  1  0
  1 30  1  0
  1 31  1  0
  2 32  1  0
  3 33  1  0
  3 34  1  0
  4 35  1  0
  6 36  1  0
  7 37  1  0
  8 38  1  0
  9 39  1  0
 10 40  1  0
 12 41  1  0
 12 42  1  0
 13 43  1  0
 14 44  1  0
 14 45  1  0
 15 46  1  0
 15 47  1  0
 16 48  1  0
 21 49  1  0
 21 50  1  0
 22 51  1  0
 22 52  1  0
 23 53  1  0
 24 54  1  0
 24 55  1  0
 25 56  1  0
 25 57  1  0
 26 58  1  0
 27 59  1  0
 28 60  1  0
M  END
>  <Energy>  (334) 
-35.30471828745867

>  <compound_id>  (334) 
1336

>  <target_id>  (334) 
1

>  <reference_id>  (334) 
173

>  <inspiration_ids>  (334) 
[173, 47]

>  <energy_score>  (334) 
-29.56387837678676

>  <distance_score>  (334) 
1.5946566762508048

>  <path>  (334) 
/opt/xchem-fragalysis-2/maxwin/BulkDock/SCRATCH/505736/C1336-P173/C1336-P173.minimised.mol

>  <scratch_subdir>  (334) 
/opt/xchem-fragalysis-2/maxwin/BulkDock/SCRATCH/505736/C1336-P173

>  <fragmenstein_runtime>  (334) 
9.064429998397827

>  <fragmenstein_outcome>  (334) 
too moved

>  <fragmenstein_mode>  (334) 
expansion

>  <fragmenstein_error>  (334) 


$$$$
C1336-P47
     RDKit          3D

 60 63  0  0  0  0  0  0  0  0999 V2000
  -12.6051  -25.4759   26.4081 C   0  0  0  0  0  0  0  0  0  0  0  0
  -11.3846  -24.7498   26.9905 C   0  0  0  0  0  0  0  0  0  0  0  0
  -10.5046  -25.6349   27.8705 C   0  0  0  0  0  0  0  0  0  0  0  0
  -11.1885  -25.6080   29.2417 C   0  0  0  0  0  0  0  0  0  0  0  0
  -10.4314  -25.8157   30.5235 C   0  0  0  0  0  0  0  0  0  0  0  0
  -11.1449  -26.0316   31.6907 C   0  0  0  0  0  0  0  0  0  0  0  0
  -10.6282  -25.7364   32.9632 C   0  0  0  0  0  0  0  0  0  0  0  0
   -9.3075  -25.3830   33.1006 C   0  0  0  0  0  0  0  0  0  0  0  0
   -8.5405  -25.3091   31.9664 C   0  0  0  0  0  0  0  0  0  0  0  0
   -9.1096  -25.5062   30.6965 C   0  0  0  0  0  0  0  0  0  0  0  0
  -11.9105  -24.2261   29.2353 C   0  0  0  0  0  0  0  0  0  0  0  0
  -11.7240  -23.2239   30.4043 C   0  0  0  0  0  0  0  0  0  0  0  0
  -12.8970  -23.5084   31.3194 C   0  0  0  0  0  0  0  0  0  0  0  0
  -13.1423  -22.5234   32.4368 C   0  0  0  0  0  0  0  0  0  0  0  0
  -14.5507  -22.5727   33.0126 C   0  0  0  0  0  0  0  0  0  0  0  0
  -15.4621  -22.0031   32.0258 N   0  0  0  0  0  0  0  0  0  0  0  0
  -16.4382  -20.7379   32.4084 S   0  0  0  0  0  0  0  0  0  0  0  0
  -15.6875  -19.8485   33.2586 O   0  0  0  0  0  0  0  0  0  0  0  0
  -16.9958  -20.3004   31.1500 O   0  0  0  0  0  0  0  0  0  0  0  0
  -17.5919  -21.5335   33.3117 N   0  0  0  0  0  0  0  0  0  0  0  0
  -18.4948  -22.4564   32.5703 C   0  0  0  0  0  0  0  0  0  0  0  0
  -19.3341  -23.2770   33.5675 C   0  0  0  0  0  0  0  0  0  0  0  0
  -20.1281  -22.4367   34.4851 N   0  0  0  0  0  0  0  0  0  0  0  0
  -19.2171  -21.5061   35.1864 C   0  0  0  0  0  0  0  0  0  0  0  0
  -18.3674  -20.6466   34.2296 C   0  0  0  0  0  0  0  0  0  0  0  0
  -13.9116  -23.6733   30.3076 N   0  0  0  0  0  0  0  0  0  0  0  0
  -13.3068  -24.5395   29.3551 N   0  0  0  0  0  0  0  0  0  0  0  0
  -11.6972  -23.6547   27.9131 N   0  0  0  0  0  0  0  0  0  0  0  0
  -13.3265  -24.7627   25.9957 H   0  0  0  0  0  0  0  0  0  0  0  0
  -12.2802  -26.1266   25.5883 H   0  0  0  0  0  0  0  0  0  0  0  0
  -13.1157  -26.1196   27.1285 H   0  0  0  0  0  0  0  0  0  0  0  0
  -10.8007  -24.3552   26.1530 H   0  0  0  0  0  0  0  0  0  0  0  0
  -10.3951  -26.6529   27.4838 H   0  0  0  0  0  0  0  0  0  0  0  0
   -9.5103  -25.1915   27.9312 H   0  0  0  0  0  0  0  0  0  0  0  0
  -11.9170  -26.4340   29.1962 H   0  0  0  0  0  0  0  0  0  0  0  0
  -12.1912  -26.2854   31.5767 H   0  0  0  0  0  0  0  0  0  0  0  0
  -11.2596  -25.7723   33.8456 H   0  0  0  0  0  0  0  0  0  0  0  0
   -8.8491  -25.2168   34.0669 H   0  0  0  0  0  0  0  0  0  0  0  0
   -7.4971  -25.0492   32.0997 H   0  0  0  0  0  0  0  0  0  0  0  0
   -8.5408  -25.3166   29.8061 H   0  0  0  0  0  0  0  0  0  0  0  0
  -10.8017  -23.3159   30.9700 H   0  0  0  0  0  0  0  0  0  0  0  0
  -11.7756  -22.1886   30.0355 H   0  0  0  0  0  0  0  0  0  0  0  0
  -12.8283  -24.4529   31.8422 H   0  0  0  0  0  0  0  0  0  0  0  0
  -12.4360  -22.7478   33.2467 H   0  0  0  0  0  0  0  0  0  0  0  0
  -12.8949  -21.5151   32.1173 H   0  0  0  0  0  0  0  0  0  0  0  0
  -14.5755  -21.9911   33.9356 H   0  0  0  0  0  0  0  0  0  0  0  0
  -14.8539  -23.5958   33.2572 H   0  0  0  0  0  0  0  0  0  0  0  0
  -15.8560  -22.6726   31.3738 H   0  0  0  0  0  0  0  0  0  0  0  0
  -17.9139  -23.1531   31.9588 H   0  0  0  0  0  0  0  0  0  0  0  0
  -19.1548  -21.8827   31.9087 H   0  0  0  0  0  0  0  0  0  0  0  0
  -18.6800  -23.9320   34.1565 H   0  0  0  0  0  0  0  0  0  0  0  0
  -20.0180  -23.9288   33.0130 H   0  0  0  0  0  0  0  0  0  0  0  0
  -20.7730  -21.8759   33.9272 H   0  0  0  0  0  0  0  0  0  0  0  0
  -19.8163  -20.8491   35.8264 H   0  0  0  0  0  0  0  0  0  0  0  0
  -18.5615  -22.0831   35.8505 H   0  0  0  0  0  0  0  0  0  0  0  0
  -17.6874  -20.0378   34.8345 H   0  0  0  0  0  0  0  0  0  0  0  0
  -19.0104  -19.9779   33.6449 H   0  0  0  0  0  0  0  0  0  0  0  0
  -14.6863  -24.1867   30.7615 H   0  0  0  0  0  0  0  0  0  0  0  0
  -13.7664  -24.7006   28.4720 H   0  0  0  0  0  0  0  0  0  0  0  0
  -12.4967  -23.1051   27.6160 H   0  0  0  0  0  0  0  0  0  0  0  0
  1  2  1  0
  2  3  1  0
  3  4  1  0
  4  5  1  0
  5  6  2  0
  6  7  1  0
  7  8  2  0
  8  9  1  0
  9 10  2  0
  4 11  1  0
 11 12  1  0
 12 13  1  0
 13 14  1  0
 14 15  1  0
 15 16  1  0
 16 17  1  0
 17 18  2  0
 17 19  2  0
 17 20  1  0
 20 21  1  0
 21 22  1  0
 22 23  1  0
 23 24  1  0
 24 25  1  0
 13 26  1  0
 26 27  1  0
 11 28  1  0
 28  2  1  0
 10  5  1  0
 27 11  1  0
 25 20  1  0
  1 29  1  0
  1 30  1  0
  1 31  1  0
  2 32  1  0
  3 33  1  0
  3 34  1  0
  4 35  1  0
  6 36  1  0
  7 37  1  0
  8 38  1  0
  9 39  1  0
 10 40  1  0
 12 41  1  0
 12 42  1  0
 13 43  1  0
 14 44  1  0
 14 45  1  0
 15 46  1  0
 15 47  1  0
 16 48  1  0
 21 49  1  0
 21 50  1  0
 22 51  1  0
 22 52  1  0
 23 53  1  0
 24 54  1  0
 24 55  1  0
 25 56  1  0
 25 57  1  0
 26 58  1  0
 27 59  1  0
 28 60  1  0
M  END
>  <Energy>  (335) 
-43.347997926611612

>  <compound_id>  (335) 
1336

>  <target_id>  (335) 
1

>  <reference_id>  (335) 
47

>  <inspiration_ids>  (335) 
[173, 47]

>  <energy_score>  (335) 
-37.60715801593686

>  <distance_score>  (335) 
1.520106022337795

>  <path>  (335) 
/opt/xchem-fragalysis-2/maxwin/BulkDock/SCRATCH/505736/C1336-P47/C1336-P47.minimised.mol

>  <scratch_subdir>  (335) 
/opt/xchem-fragalysis-2/maxwin/BulkDock/SCRATCH/505736/C1336-P47

>  <fragmenstein_runtime>  (335) 
9.291792392730713

>  <fragmenstein_outcome>  (335) 
too moved

>  <fragmenstein_mode>  (335) 
expansion

>  <fragmenstein_error>  (335) 


$$$$
C2566-P173
     RDKit          3D

 42 44  0  0  0  0  0  0  0  0999 V2000
  -11.8406  -21.9508   31.7289 N   0  0  0  0  0  0  0  0  0  0  0  0
  -11.9748  -22.3135   30.6367 C   0  0  0  0  0  0  0  0  0  0  0  0
  -12.0436  -22.8729   29.3264 C   0  0  0  0  0  0  0  0  0  0  0  0
  -11.3466  -22.5470   28.2045 N   0  0  0  0  0  0  0  0  0  0  0  0
  -11.5118  -23.5749   27.3089 C   0  0  0  0  0  0  0  0  0  0  0  0
  -12.4287  -24.4290   27.6899 N   0  0  0  0  0  0  0  0  0  0  0  0
  -12.7961  -23.9391   28.9013 C   0  0  0  0  0  0  0  0  0  0  0  0
  -13.7898  -24.5202   29.6784 N   0  0  0  0  0  0  0  0  0  0  0  0
  -14.5458  -25.6215   29.4347 C   0  0  0  0  0  0  0  0  0  0  0  0
  -15.2424  -25.8533   30.6002 C   0  0  0  0  0  0  0  0  0  0  0  0
  -14.9029  -24.7921   31.4552 C   0  0  0  0  0  0  0  0  0  0  0  0
  -15.3893  -24.4312   32.8095 C   0  0  0  0  0  0  0  0  0  0  0  0
  -15.1897  -22.9485   33.1657 C   0  0  0  0  0  0  0  0  0  0  0  0
  -15.7779  -22.1294   32.0948 N   0  0  0  0  0  0  0  0  0  0  0  0
  -16.5378  -20.7177   32.4241 S   0  0  0  0  0  0  0  0  0  0  0  0
  -15.7079  -19.9532   33.3209 O   0  0  0  0  0  0  0  0  0  0  0  0
  -16.9764  -20.1779   31.1571 O   0  0  0  0  0  0  0  0  0  0  0  0
  -17.8270  -21.3359   33.2705 N   0  0  0  0  0  0  0  0  0  0  0  0
  -18.7470  -22.2413   32.5389 C   0  0  0  0  0  0  0  0  0  0  0  0
  -19.5470  -23.0546   33.5738 C   0  0  0  0  0  0  0  0  0  0  0  0
  -20.3098  -22.2043   34.5059 N   0  0  0  0  0  0  0  0  0  0  0  0
  -19.4212  -21.1981   35.1288 C   0  0  0  0  0  0  0  0  0  0  0  0
  -18.5891  -20.3835   34.1145 C   0  0  0  0  0  0  0  0  0  0  0  0
  -14.0627  -23.9699   30.8552 N   0  0  0  0  0  0  0  0  0  0  0  0
  -10.7897  -21.7132   28.0660 H   0  0  0  0  0  0  0  0  0  0  0  0
  -10.9793  -23.6379   26.3733 H   0  0  0  0  0  0  0  0  0  0  0  0
  -14.4824  -26.1587   28.5002 H   0  0  0  0  0  0  0  0  0  0  0  0
  -15.9231  -26.6682   30.7965 H   0  0  0  0  0  0  0  0  0  0  0  0
  -16.4600  -24.6661   32.8663 H   0  0  0  0  0  0  0  0  0  0  0  0
  -14.8957  -25.0377   33.5695 H   0  0  0  0  0  0  0  0  0  0  0  0
  -14.1275  -22.7050   33.2676 H   0  0  0  0  0  0  0  0  0  0  0  0
  -15.6709  -22.7514   34.1291 H   0  0  0  0  0  0  0  0  0  0  0  0
  -15.2107  -22.1641   31.2462 H   0  0  0  0  0  0  0  0  0  0  0  0
  -18.1984  -22.9418   31.9032 H   0  0  0  0  0  0  0  0  0  0  0  0
  -19.4219  -21.6592   31.9001 H   0  0  0  0  0  0  0  0  0  0  0  0
  -20.2473  -23.7138   33.0498 H   0  0  0  0  0  0  0  0  0  0  0  0
  -18.8644  -23.6948   34.1469 H   0  0  0  0  0  0  0  0  0  0  0  0
  -20.7147  -22.7839   35.2393 H   0  0  0  0  0  0  0  0  0  0  0  0
  -20.0349  -20.5117   35.7220 H   0  0  0  0  0  0  0  0  0  0  0  0
  -18.7440  -21.7099   35.8245 H   0  0  0  0  0  0  0  0  0  0  0  0
  -17.9111  -19.7284   34.6707 H   0  0  0  0  0  0  0  0  0  0  0  0
  -19.2405  -19.7617   33.4895 H   0  0  0  0  0  0  0  0  0  0  0  0
  1  2  3  0
  2  3  1  0
  3  4  1  0
  4  5  1  0
  5  6  2  0
  6  7  1  0
  7  8  1  0
  8  9  1  0
  9 10  2  0
 10 11  1  0
 11 12  1  0
 12 13  1  0
 13 14  1  0
 14 15  1  0
 15 16  2  0
 15 17  2  0
 15 18  1  0
 18 19  1  0
 19 20  1  0
 20 21  1  0
 21 22  1  0
 22 23  1  0
 11 24  2  0
  7  3  2  0
 24  8  1  0
 23 18  1  0
  4 25  1  0
  5 26  1  0
  9 27  1  0
 10 28  1  0
 12 29  1  0
 12 30  1  0
 13 31  1  0
 13 32  1  0
 14 33  1  0
 19 34  1  0
 19 35  1  0
 20 36  1  0
 20 37  1  0
 21 38  1  0
 22 39  1  0
 22 40  1  0
 23 41  1  0
 23 42  1  0
M  END
>  <Energy>  (336) 
-77.819364159565083

>  <compound_id>  (336) 
2566

>  <target_id>  (336) 
1

>  <reference_id>  (336) 
173

>  <inspiration_ids>  (336) 
[173, 49]

>  <energy_score>  (336) 
-73.55550130280395

>  <distance_score>  (336) 
2.286491275307838

>  <path>  (336) 
/opt/xchem-fragalysis-2/maxwin/BulkDock/SCRATCH/505736/C2566-P173/C2566-P173.minimised.mol

>  <scratch_subdir>  (336) 
/opt/xchem-fragalysis-2/maxwin/BulkDock/SCRATCH/505736/C2566-P173

>  <fragmenstein_runtime>  (336) 
7.587275743484497

>  <fragmenstein_outcome>  (336) 
too moved

>  <fragmenstein_mode>  (336) 
expansion

>  <fragmenstein_error>  (336) 


$$$$
C2566-P49
     RDKit          3D

 42 44  0  0  0  0  0  0  0  0999 V2000
   -9.7902  -23.7370   32.7666 N   0  0  0  0  0  0  0  0  0  0  0  0
   -9.9939  -24.0891   31.6815 C   0  0  0  0  0  0  0  0  0  0  0  0
  -10.1655  -24.4988   30.3320 C   0  0  0  0  0  0  0  0  0  0  0  0
   -9.4177  -25.4376   29.6970 N   0  0  0  0  0  0  0  0  0  0  0  0
   -9.7681  -25.4396   28.3753 C   0  0  0  0  0  0  0  0  0  0  0  0
  -10.7286  -24.5856   28.1129 N   0  0  0  0  0  0  0  0  0  0  0  0
  -10.9965  -24.0351   29.3340 C   0  0  0  0  0  0  0  0  0  0  0  0
  -11.9670  -23.0293   29.5303 N   0  0  0  0  0  0  0  0  0  0  0  0
  -11.6718  -21.6974   29.3439 C   0  0  0  0  0  0  0  0  0  0  0  0
  -11.9010  -21.1139   30.5737 C   0  0  0  0  0  0  0  0  0  0  0  0
  -12.5586  -22.1005   31.3430 C   0  0  0  0  0  0  0  0  0  0  0  0
  -12.7743  -22.1262   32.8305 C   0  0  0  0  0  0  0  0  0  0  0  0
  -14.0400  -21.5247   33.4549 C   0  0  0  0  0  0  0  0  0  0  0  0
  -14.8117  -20.7500   32.4975 N   0  0  0  0  0  0  0  0  0  0  0  0
  -16.1457  -19.8939   32.9314 S   0  0  0  0  0  0  0  0  0  0  0  0
  -15.7049  -18.9649   33.9446 O   0  0  0  0  0  0  0  0  0  0  0  0
  -16.7702  -19.4160   31.7166 O   0  0  0  0  0  0  0  0  0  0  0  0
  -17.1343  -21.0465   33.6493 N   0  0  0  0  0  0  0  0  0  0  0  0
  -17.8703  -21.9520   32.7182 C   0  0  0  0  0  0  0  0  0  0  0  0
  -18.5346  -23.0928   33.5123 C   0  0  0  0  0  0  0  0  0  0  0  0
  -19.4741  -22.6015   34.5389 N   0  0  0  0  0  0  0  0  0  0  0  0
  -18.7752  -21.6439   35.4174 C   0  0  0  0  0  0  0  0  0  0  0  0
  -18.0887  -20.4925   34.6546 C   0  0  0  0  0  0  0  0  0  0  0  0
  -12.8129  -23.1699   30.5755 N   0  0  0  0  0  0  0  0  0  0  0  0
   -8.7030  -26.0083   30.1261 H   0  0  0  0  0  0  0  0  0  0  0  0
   -9.2814  -26.0764   27.6503 H   0  0  0  0  0  0  0  0  0  0  0  0
  -11.1182  -21.3551   28.4793 H   0  0  0  0  0  0  0  0  0  0  0  0
  -11.5449  -20.1434   30.8903 H   0  0  0  0  0  0  0  0  0  0  0  0
  -12.6265  -23.1390   33.2169 H   0  0  0  0  0  0  0  0  0  0  0  0
  -11.9272  -21.5715   33.2632 H   0  0  0  0  0  0  0  0  0  0  0  0
  -13.7375  -20.8723   34.2807 H   0  0  0  0  0  0  0  0  0  0  0  0
  -14.6593  -22.3029   33.9028 H   0  0  0  0  0  0  0  0  0  0  0  0
  -15.0488  -21.3345   31.6905 H   0  0  0  0  0  0  0  0  0  0  0  0
  -17.1953  -22.3909   31.9900 H   0  0  0  0  0  0  0  0  0  0  0  0
  -18.6346  -21.3853   32.1721 H   0  0  0  0  0  0  0  0  0  0  0  0
  -19.0832  -23.7400   32.8196 H   0  0  0  0  0  0  0  0  0  0  0  0
  -17.7631  -23.7089   33.9911 H   0  0  0  0  0  0  0  0  0  0  0  0
  -19.7927  -23.3908   35.0990 H   0  0  0  0  0  0  0  0  0  0  0  0
  -19.5017  -21.2232   36.1209 H   0  0  0  0  0  0  0  0  0  0  0  0
  -18.0269  -22.1840   36.0116 H   0  0  0  0  0  0  0  0  0  0  0  0
  -17.5534  -19.8797   35.3874 H   0  0  0  0  0  0  0  0  0  0  0  0
  -18.8379  -19.8664   34.1553 H   0  0  0  0  0  0  0  0  0  0  0  0
  1  2  3  0
  2  3  1  0
  3  4  1  0
  4  5  1  0
  5  6  2  0
  6  7  1  0
  7  8  1  0
  8  9  1  0
  9 10  2  0
 10 11  1  0
 11 12  1  0
 12 13  1  0
 13 14  1  0
 14 15  1  0
 15 16  2  0
 15 17  2  0
 15 18  1  0
 18 19  1  0
 19 20  1  0
 20 21  1  0
 21 22  1  0
 22 23  1  0
 11 24  2  0
  7  3  2  0
 24  8  1  0
 23 18  1  0
  4 25  1  0
  5 26  1  0
  9 27  1  0
 10 28  1  0
 12 29  1  0
 12 30  1  0
 13 31  1  0
 13 32  1  0
 14 33  1  0
 19 34  1  0
 19 35  1  0
 20 36  1  0
 20 37  1  0
 21 38  1  0
 22 39  1  0
 22 40  1  0
 23 41  1  0
 23 42  1  0
M  END
>  <Energy>  (337) 
-45.798801869801018

>  <compound_id>  (337) 
2566

>  <target_id>  (337) 
1

>  <reference_id>  (337) 
49

>  <inspiration_ids>  (337) 
[173, 49]

>  <energy_score>  (337) 
-41.53493901304172

>  <distance_score>  (337) 
1.7283141874943806

>  <path>  (337) 
/opt/xchem-fragalysis-2/maxwin/BulkDock/SCRATCH/505736/C2566-P49/C2566-P49.minimised.mol

>  <scratch_subdir>  (337) 
/opt/xchem-fragalysis-2/maxwin/BulkDock/SCRATCH/505736/C2566-P49

>  <fragmenstein_runtime>  (337) 
6.7178239822387695

>  <fragmenstein_outcome>  (337) 
too moved

>  <fragmenstein_mode>  (337) 
expansion

>  <fragmenstein_error>  (337) 


$$$$
C2567-P173
     RDKit          3D

 55 57  0  0  0  0  0  0  0  0999 V2000
  -10.7292  -22.2273   32.6143 C   0  0  0  0  0  0  0  0  0  0  0  0
  -11.3613  -21.5441   33.7210 C   0  0  0  0  0  0  0  0  0  0  0  0
  -10.6653  -20.7858   34.6301 C   0  0  0  0  0  0  0  0  0  0  0  0
  -11.2431  -20.4745   35.8306 C   0  0  0  0  0  0  0  0  0  0  0  0
  -10.5653  -19.7960   36.7643 F   0  0  0  0  0  0  0  0  0  0  0  0
  -12.5387  -20.8515   36.0620 C   0  0  0  0  0  0  0  0  0  0  0  0
  -13.2672  -21.4207   35.0154 C   0  0  0  0  0  0  0  0  0  0  0  0
  -14.9028  -21.8491   35.3423 S   0  0  0  0  0  0  0  0  0  0  0  0
  -15.1614  -23.1610   34.3663 N   0  0  0  0  0  0  0  0  0  0  0  0
  -14.9854  -22.3301   36.7051 O   0  0  0  0  0  0  0  0  0  0  0  0
  -15.7035  -20.7444   34.8830 O   0  0  0  0  0  0  0  0  0  0  0  0
  -12.7146  -21.6758   33.7811 C   0  0  0  0  0  0  0  0  0  0  0  0
  -13.4019  -21.8558   32.4662 C   0  0  0  0  0  0  0  0  0  0  0  0
  -13.2701  -23.0738   31.6759 N   0  0  0  0  0  0  0  0  0  0  0  0
  -12.9917  -23.1534   30.3295 C   0  0  0  0  0  0  0  0  0  0  0  0
  -13.7729  -24.1929   29.8792 C   0  0  0  0  0  0  0  0  0  0  0  0
  -14.4326  -24.6448   31.0444 C   0  0  0  0  0  0  0  0  0  0  0  0
  -15.7631  -25.2484   31.2267 C   0  0  0  0  0  0  0  0  0  0  0  0
  -16.7803  -24.2605   31.9042 C   0  0  0  0  0  0  0  0  0  0  0  0
  -16.3766  -22.8148   31.8232 N   0  0  0  0  0  0  0  0  0  0  0  0
  -17.3789  -21.4924   31.9651 S   0  0  0  0  0  0  0  0  0  0  0  0
  -16.4713  -20.3712   32.0582 O   0  0  0  0  0  0  0  0  0  0  0  0
  -18.3467  -21.5447   30.9029 O   0  0  0  0  0  0  0  0  0  0  0  0
  -18.1500  -21.7762   33.4047 N   0  0  0  0  0  0  0  0  0  0  0  0
  -19.2913  -22.7327   33.3565 C   0  0  0  0  0  0  0  0  0  0  0  0
  -19.7080  -23.1037   34.7851 C   0  0  0  0  0  0  0  0  0  0  0  0
  -20.1311  -21.9310   35.5687 N   0  0  0  0  0  0  0  0  0  0  0  0
  -19.0406  -20.9255   35.5545 C   0  0  0  0  0  0  0  0  0  0  0  0
  -18.5926  -20.5371   34.1296 C   0  0  0  0  0  0  0  0  0  0  0  0
  -13.8537  -24.1672   32.1371 N   0  0  0  0  0  0  0  0  0  0  0  0
  -11.1052  -23.2068   32.3623 H   0  0  0  0  0  0  0  0  0  0  0  0
  -10.9464  -21.6254   31.7328 H   0  0  0  0  0  0  0  0  0  0  0  0
   -9.7035  -22.4392   32.8610 H   0  0  0  0  0  0  0  0  0  0  0  0
   -9.6817  -20.4324   34.3732 H   0  0  0  0  0  0  0  0  0  0  0  0
  -12.9983  -20.6327   37.0203 H   0  0  0  0  0  0  0  0  0  0  0  0
  -14.3436  -23.6733   33.9991 H   0  0  0  0  0  0  0  0  0  0  0  0
  -15.7521  -22.8986   33.5724 H   0  0  0  0  0  0  0  0  0  0  0  0
  -12.8857  -21.1636   31.8270 H   0  0  0  0  0  0  0  0  0  0  0  0
  -14.4354  -21.5442   32.4889 H   0  0  0  0  0  0  0  0  0  0  0  0
  -12.4043  -22.4057   29.8144 H   0  0  0  0  0  0  0  0  0  0  0  0
  -13.9770  -24.4474   28.8496 H   0  0  0  0  0  0  0  0  0  0  0  0
  -15.7038  -26.1644   31.8250 H   0  0  0  0  0  0  0  0  0  0  0  0
  -16.1622  -25.5601   30.2538 H   0  0  0  0  0  0  0  0  0  0  0  0
  -17.7434  -24.4059   31.4041 H   0  0  0  0  0  0  0  0  0  0  0  0
  -16.9079  -24.5483   32.9522 H   0  0  0  0  0  0  0  0  0  0  0  0
  -16.0084  -22.7113   30.8673 H   0  0  0  0  0  0  0  0  0  0  0  0
  -19.0392  -23.6539   32.8391 H   0  0  0  0  0  0  0  0  0  0  0  0
  -20.1389  -22.2799   32.8264 H   0  0  0  0  0  0  0  0  0  0  0  0
  -20.5409  -23.8144   34.7482 H   0  0  0  0  0  0  0  0  0  0  0  0
  -18.8821  -23.6078   35.3023 H   0  0  0  0  0  0  0  0  0  0  0  0
  -20.9443  -21.5093   35.1208 H   0  0  0  0  0  0  0  0  0  0  0  0
  -19.3900  -20.0300   36.0799 H   0  0  0  0  0  0  0  0  0  0  0  0
  -18.1907  -21.3182   36.1253 H   0  0  0  0  0  0  0  0  0  0  0  0
  -19.4272  -20.0741   33.5874 H   0  0  0  0  0  0  0  0  0  0  0  0
  -17.7938  -19.7952   34.1922 H   0  0  0  0  0  0  0  0  0  0  0  0
  1  2  1  0
  2  3  2  0
  3  4  1  0
  4  5  1  0
  4  6  2  0
  6  7  1  0
  7  8  1  0
  8  9  1  0
  8 10  2  0
  8 11  2  0
  7 12  2  0
 12 13  1  0
 13 14  1  0
 14 15  1  0
 15 16  2  0
 16 17  1  0
 17 18  1  0
 18 19  1  0
 19 20  1  0
 20 21  1  0
 21 22  2  0
 21 23  2  0
 21 24  1  0
 24 25  1  0
 25 26  1  0
 26 27  1  0
 27 28  1  0
 28 29  1  0
 17 30  2  0
 12  2  1  0
 30 14  1  0
 29 24  1  0
  1 31  1  0
  1 32  1  0
  1 33  1  0
  3 34  1  0
  6 35  1  0
  9 36  1  0
  9 37  1  0
 13 38  1  0
 13 39  1  0
 15 40  1  0
 16 41  1  0
 18 42  1  0
 18 43  1  0
 19 44  1  0
 19 45  1  0
 20 46  1  0
 25 47  1  0
 25 48  1  0
 26 49  1  0
 26 50  1  0
 27 51  1  0
 28 52  1  0
 28 53  1  0
 29 54  1  0
 29 55  1  0
M  END
>  <Energy>  (338) 
-90.856837440380318

>  <compound_id>  (338) 
2567

>  <target_id>  (338) 
1

>  <reference_id>  (338) 
173

>  <inspiration_ids>  (338) 
[173, 52]

>  <energy_score>  (338) 
-35.54210183163036

>  <distance_score>  (338) 
2.6337971041421246

>  <path>  (338) 
/opt/xchem-fragalysis-2/maxwin/BulkDock/SCRATCH/505736/C2567-P173/C2567-P173.minimised.mol

>  <scratch_subdir>  (338) 
/opt/xchem-fragalysis-2/maxwin/BulkDock/SCRATCH/505736/C2567-P173

>  <fragmenstein_runtime>  (338) 
10.331159353256226

>  <fragmenstein_outcome>  (338) 
too moved

>  <fragmenstein_mode>  (338) 
expansion

>  <fragmenstein_error>  (338) 


$$$$
C2567-P52
     RDKit          3D

 55 57  0  0  0  0  0  0  0  0999 V2000
  -11.4899  -26.3226   30.3492 C   0  0  0  0  0  0  0  0  0  0  0  0
  -10.7395  -25.6035   31.4495 C   0  0  0  0  0  0  0  0  0  0  0  0
  -10.4163  -26.3084   32.6135 C   0  0  0  0  0  0  0  0  0  0  0  0
   -9.8874  -25.6695   33.7056 C   0  0  0  0  0  0  0  0  0  0  0  0
   -9.5983  -26.3736   34.8038 F   0  0  0  0  0  0  0  0  0  0  0  0
   -9.8693  -24.3067   33.7334 C   0  0  0  0  0  0  0  0  0  0  0  0
  -10.1964  -23.5636   32.5838 C   0  0  0  0  0  0  0  0  0  0  0  0
  -10.3289  -21.8904   33.0924 S   0  0  0  0  0  0  0  0  0  0  0  0
  -10.6974  -20.7915   31.9226 N   0  0  0  0  0  0  0  0  0  0  0  0
  -11.4356  -21.7914   34.0135 O   0  0  0  0  0  0  0  0  0  0  0  0
   -8.9918  -21.5456   33.4936 O   0  0  0  0  0  0  0  0  0  0  0  0
  -10.4055  -24.2344   31.3576 C   0  0  0  0  0  0  0  0  0  0  0  0
  -10.1348  -23.7538   29.9369 C   0  0  0  0  0  0  0  0  0  0  0  0
  -11.2214  -23.0382   29.2949 N   0  0  0  0  0  0  0  0  0  0  0  0
  -11.1231  -21.7778   28.7822 C   0  0  0  0  0  0  0  0  0  0  0  0
  -12.0273  -21.0690   29.5419 C   0  0  0  0  0  0  0  0  0  0  0  0
  -12.6949  -22.0463   30.2989 C   0  0  0  0  0  0  0  0  0  0  0  0
  -13.4687  -22.0811   31.5439 C   0  0  0  0  0  0  0  0  0  0  0  0
  -14.0305  -20.9433   32.3480 C   0  0  0  0  0  0  0  0  0  0  0  0
  -15.1546  -20.4024   31.6107 N   0  0  0  0  0  0  0  0  0  0  0  0
  -16.3669  -19.6074   32.3707 S   0  0  0  0  0  0  0  0  0  0  0  0
  -15.7454  -18.7871   33.3792 O   0  0  0  0  0  0  0  0  0  0  0  0
  -17.0586  -19.0792   31.2277 O   0  0  0  0  0  0  0  0  0  0  0  0
  -17.2653  -20.8354   33.0537 N   0  0  0  0  0  0  0  0  0  0  0  0
  -18.4757  -21.2847   32.3125 C   0  0  0  0  0  0  0  0  0  0  0  0
  -19.1256  -22.5177   32.9745 C   0  0  0  0  0  0  0  0  0  0  0  0
  -19.4599  -22.3024   34.3930 N   0  0  0  0  0  0  0  0  0  0  0  0
  -18.2098  -21.9561   35.0984 C   0  0  0  0  0  0  0  0  0  0  0  0
  -17.4961  -20.7173   34.5214 C   0  0  0  0  0  0  0  0  0  0  0  0
  -12.4616  -23.2451   29.7412 N   0  0  0  0  0  0  0  0  0  0  0  0
  -11.8884  -27.2803   30.7017 H   0  0  0  0  0  0  0  0  0  0  0  0
  -12.3605  -25.7489   30.0282 H   0  0  0  0  0  0  0  0  0  0  0  0
  -10.8640  -26.5096   29.4776 H   0  0  0  0  0  0  0  0  0  0  0  0
  -10.6506  -27.3606   32.7262 H   0  0  0  0  0  0  0  0  0  0  0  0
   -9.6067  -23.8248   34.6729 H   0  0  0  0  0  0  0  0  0  0  0  0
  -11.5295  -20.2993   32.2297 H   0  0  0  0  0  0  0  0  0  0  0  0
   -9.9520  -20.0953   31.8952 H   0  0  0  0  0  0  0  0  0  0  0  0
   -9.9155  -24.5930   29.2665 H   0  0  0  0  0  0  0  0  0  0  0  0
   -9.2162  -23.1819   29.8993 H   0  0  0  0  0  0  0  0  0  0  0  0
  -10.2988  -21.4517   28.1741 H   0  0  0  0  0  0  0  0  0  0  0  0
  -12.0503  -19.9983   29.6190 H   0  0  0  0  0  0  0  0  0  0  0  0
  -12.9189  -22.7229   32.2313 H   0  0  0  0  0  0  0  0  0  0  0  0
  -14.3379  -22.5675   31.1599 H   0  0  0  0  0  0  0  0  0  0  0  0
  -13.3190  -20.1505   32.5482 H   0  0  0  0  0  0  0  0  0  0  0  0
  -14.3475  -21.2823   33.3377 H   0  0  0  0  0  0  0  0  0  0  0  0
  -15.5881  -21.0319   30.9272 H   0  0  0  0  0  0  0  0  0  0  0  0
  -18.2099  -21.5447   31.2840 H   0  0  0  0  0  0  0  0  0  0  0  0
  -19.2040  -20.4649   32.2841 H   0  0  0  0  0  0  0  0  0  0  0  0
  -20.0472  -22.7645   32.4357 H   0  0  0  0  0  0  0  0  0  0  0  0
  -18.4693  -23.3909   32.8815 H   0  0  0  0  0  0  0  0  0  0  0  0
  -20.0935  -21.5064   34.4601 H   0  0  0  0  0  0  0  0  0  0  0  0
  -18.4459  -21.7726   36.1526 H   0  0  0  0  0  0  0  0  0  0  0  0
  -17.5356  -22.8207   35.0795 H   0  0  0  0  0  0  0  0  0  0  0  0
  -18.1015  -19.8239   34.7177 H   0  0  0  0  0  0  0  0  0  0  0  0
  -16.5359  -20.6106   35.0384 H   0  0  0  0  0  0  0  0  0  0  0  0
  1  2  1  0
  2  3  2  0
  3  4  1  0
  4  5  1  0
  4  6  2  0
  6  7  1  0
  7  8  1  0
  8  9  1  0
  8 10  2  0
  8 11  2  0
  7 12  2  0
 12 13  1  0
 13 14  1  0
 14 15  1  0
 15 16  2  0
 16 17  1  0
 17 18  1  0
 18 19  1  0
 19 20  1  0
 20 21  1  0
 21 22  2  0
 21 23  2  0
 21 24  1  0
 24 25  1  0
 25 26  1  0
 26 27  1  0
 27 28  1  0
 28 29  1  0
 17 30  2  0
 12  2  1  0
 30 14  1  0
 29 24  1  0
  1 31  1  0
  1 32  1  0
  1 33  1  0
  3 34  1  0
  6 35  1  0
  9 36  1  0
  9 37  1  0
 13 38  1  0
 13 39  1  0
 15 40  1  0
 16 41  1  0
 18 42  1  0
 18 43  1  0
 19 44  1  0
 19 45  1  0
 20 46  1  0
 25 47  1  0
 25 48  1  0
 26 49  1  0
 26 50  1  0
 27 51  1  0
 28 52  1  0
 28 53  1  0
 29 54  1  0
 29 55  1  0
M  END
>  <Energy>  (339) 
-71.834690961616019

>  <compound_id>  (339) 
2567

>  <target_id>  (339) 
1

>  <reference_id>  (339) 
52

>  <inspiration_ids>  (339) 
[173, 52]

>  <energy_score>  (339) 
-16.519955352868102

>  <distance_score>  (339) 
1.6326883834194312

>  <path>  (339) 
/opt/xchem-fragalysis-2/maxwin/BulkDock/SCRATCH/505736/C2567-P52/C2567-P52.minimised.mol

>  <scratch_subdir>  (339) 
/opt/xchem-fragalysis-2/maxwin/BulkDock/SCRATCH/505736/C2567-P52

>  <fragmenstein_runtime>  (339) 
10.048321723937988

>  <fragmenstein_outcome>  (339) 
too moved

>  <fragmenstein_mode>  (339) 
expansion

>  <fragmenstein_error>  (339) 


$$$$
C2568-P173
     RDKit          3D

 48 50  0  0  0  0  0  0  0  0999 V2000
  -15.2855  -20.4406   33.2704 O   0  0  0  0  0  0  0  0  0  0  0  0
  -16.1745  -21.0567   32.3177 S   0  0  0  0  0  0  0  0  0  0  0  0
  -16.7483  -20.2798   31.2392 O   0  0  0  0  0  0  0  0  0  0  0  0
  -15.3837  -22.3066   31.6034 N   0  0  0  0  0  0  0  0  0  0  0  0
  -14.7465  -23.3831   32.3510 C   0  0  0  0  0  0  0  0  0  0  0  0
  -15.0122  -24.6863   31.5890 C   0  0  0  0  0  0  0  0  0  0  0  0
  -13.9008  -25.2194   30.6421 C   0  0  0  0  0  0  0  0  0  0  0  0
  -14.2456  -26.5795   30.0967 N   0  0  0  0  0  0  0  0  0  0  0  0
  -15.1943  -27.2801   30.9222 O   0  0  0  0  0  0  0  0  0  0  0  0
  -14.7253  -26.4693   28.7750 N   0  0  0  0  0  0  0  0  0  0  0  0
  -13.8630  -27.2336   27.8977 O   0  0  0  0  0  0  0  0  0  0  0  0
  -14.5736  -25.0645   28.4020 C   0  0  0  0  0  0  0  0  0  0  0  0
  -13.5235  -24.4316   29.3250 C   0  0  0  0  0  0  0  0  0  0  0  0
  -13.4425  -23.0013   29.5364 N   0  0  0  0  0  0  0  0  0  0  0  0
  -12.0102  -22.6992   29.6173 C   0  0  0  0  0  0  0  0  0  0  0  0
  -11.5964  -23.3822   28.3370 C   0  0  0  0  0  0  0  0  0  0  0  0
  -12.2975  -24.6244   28.5320 N   0  0  0  0  0  0  0  0  0  0  0  0
  -17.3942  -21.8119   33.1735 N   0  0  0  0  0  0  0  0  0  0  0  0
  -18.3673  -22.6001   32.3755 C   0  0  0  0  0  0  0  0  0  0  0  0
  -19.3043  -23.3786   33.3204 C   0  0  0  0  0  0  0  0  0  0  0  0
  -20.0282  -22.5167   34.2760 N   0  0  0  0  0  0  0  0  0  0  0  0
  -19.0431  -21.7161   35.0334 C   0  0  0  0  0  0  0  0  0  0  0  0
  -18.0979  -20.9015   34.1305 C   0  0  0  0  0  0  0  0  0  0  0  0
  -14.7964  -22.0516   30.8095 H   0  0  0  0  0  0  0  0  0  0  0  0
  -13.6771  -23.1895   32.4713 H   0  0  0  0  0  0  0  0  0  0  0  0
  -15.1916  -23.4583   33.3489 H   0  0  0  0  0  0  0  0  0  0  0  0
  -15.9746  -24.6603   31.0724 H   0  0  0  0  0  0  0  0  0  0  0  0
  -15.1536  -25.4299   32.3817 H   0  0  0  0  0  0  0  0  0  0  0  0
  -13.0278  -25.2816   31.2806 H   0  0  0  0  0  0  0  0  0  0  0  0
  -15.9201  -27.3701   30.2805 H   0  0  0  0  0  0  0  0  0  0  0  0
  -13.4213  -27.7825   28.5732 H   0  0  0  0  0  0  0  0  0  0  0  0
  -14.3981  -24.9515   27.3247 H   0  0  0  0  0  0  0  0  0  0  0  0
  -15.5541  -24.6840   28.5890 H   0  0  0  0  0  0  0  0  0  0  0  0
  -13.6500  -22.7094   28.5877 H   0  0  0  0  0  0  0  0  0  0  0  0
  -11.6476  -23.1427   30.5418 H   0  0  0  0  0  0  0  0  0  0  0  0
  -11.8253  -21.6240   29.6051 H   0  0  0  0  0  0  0  0  0  0  0  0
  -10.5414  -23.5455   28.1658 H   0  0  0  0  0  0  0  0  0  0  0  0
  -11.9696  -22.8540   27.4496 H   0  0  0  0  0  0  0  0  0  0  0  0
  -12.4236  -25.1553   27.6739 H   0  0  0  0  0  0  0  0  0  0  0  0
  -17.8477  -23.3274   31.7491 H   0  0  0  0  0  0  0  0  0  0  0  0
  -18.9526  -21.9354   31.7293 H   0  0  0  0  0  0  0  0  0  0  0  0
  -18.7294  -24.1269   33.8804 H   0  0  0  0  0  0  0  0  0  0  0  0
  -20.0400  -23.9290   32.7237 H   0  0  0  0  0  0  0  0  0  0  0  0
  -20.6109  -21.8678   33.7457 H   0  0  0  0  0  0  0  0  0  0  0  0
  -18.4586  -22.3869   35.6754 H   0  0  0  0  0  0  0  0  0  0  0  0
  -19.5852  -21.0349   35.6984 H   0  0  0  0  0  0  0  0  0  0  0  0
  -17.3711  -20.3916   34.7715 H   0  0  0  0  0  0  0  0  0  0  0  0
  -18.6646  -20.1451   33.5741 H   0  0  0  0  0  0  0  0  0  0  0  0
  1  2  2  0
  2  3  2  0
  2  4  1  0
  4  5  1  0
  5  6  1  0
  6  7  1  0
  7  8  1  0
  8  9  1  0
  8 10  1  0
 10 11  1  0
 10 12  1  0
 12 13  1  0
 13 14  1  0
 14 15  1  0
 15 16  1  0
 16 17  1  0
  2 18  1  0
 18 19  1  0
 19 20  1  0
 20 21  1  0
 21 22  1  0
 22 23  1  0
 13  7  1  0
 23 18  1  0
 17 13  1  0
  4 24  1  0
  5 25  1  0
  5 26  1  0
  6 27  1  0
  6 28  1  0
  7 29  1  0
  9 30  1  0
 11 31  1  0
 12 32  1  0
 12 33  1  0
 14 34  1  0
 15 35  1  0
 15 36  1  0
 16 37  1  0
 16 38  1  0
 17 39  1  0
 19 40  1  0
 19 41  1  0
 20 42  1  0
 20 43  1  0
 21 44  1  0
 22 45  1  0
 22 46  1  0
 23 47  1  0
 23 48  1  0
M  END
>  <Energy>  (340) 
-39.002773122607238

>  <compound_id>  (340) 
2568

>  <target_id>  (340) 
1

>  <reference_id>  (340) 
173

>  <inspiration_ids>  (340) 
[173, 54]

>  <energy_score>  (340) 
-66.17041603607728

>  <distance_score>  (340) 
2.4411312619745065

>  <path>  (340) 
/opt/xchem-fragalysis-2/maxwin/BulkDock/SCRATCH/505736/C2568-P173/C2568-P173.minimised.mol

>  <scratch_subdir>  (340) 
/opt/xchem-fragalysis-2/maxwin/BulkDock/SCRATCH/505736/C2568-P173

>  <fragmenstein_runtime>  (340) 
5.49786639213562

>  <fragmenstein_outcome>  (340) 
too moved

>  <fragmenstein_mode>  (340) 
expansion

>  <fragmenstein_error>  (340) 


$$$$
C2568-P54
     RDKit          3D

 48 50  0  0  0  0  0  0  0  0999 V2000
  -17.1452  -21.4340   32.2335 O   0  0  0  0  0  0  0  0  0  0  0  0
  -17.7452  -22.7479   32.0985 S   0  0  0  0  0  0  0  0  0  0  0  0
  -18.9588  -22.8082   31.3300 O   0  0  0  0  0  0  0  0  0  0  0  0
  -16.6184  -23.6600   31.2794 N   0  0  0  0  0  0  0  0  0  0  0  0
  -16.2538  -25.1114   31.3423 C   0  0  0  0  0  0  0  0  0  0  0  0
  -15.3782  -25.5309   30.0266 C   0  0  0  0  0  0  0  0  0  0  0  0
  -13.7681  -25.7250   29.5692 C   0  0  0  0  0  0  0  0  0  0  0  0
  -13.7883  -25.6605   28.0643 N   0  0  0  0  0  0  0  0  0  0  0  0
  -14.9116  -26.3794   27.5167 O   0  0  0  0  0  0  0  0  0  0  0  0
  -13.7998  -24.2649   27.7526 N   0  0  0  0  0  0  0  0  0  0  0  0
  -13.2607  -24.0382   26.4257 O   0  0  0  0  0  0  0  0  0  0  0  0
  -12.8419  -23.6446   28.6991 C   0  0  0  0  0  0  0  0  0  0  0  0
  -12.4029  -24.7936   29.6288 C   0  0  0  0  0  0  0  0  0  0  0  0
  -11.7886  -24.4165   30.9005 N   0  0  0  0  0  0  0  0  0  0  0  0
  -10.4030  -23.9889   30.6536 C   0  0  0  0  0  0  0  0  0  0  0  0
  -10.1194  -24.4835   29.2534 C   0  0  0  0  0  0  0  0  0  0  0  0
  -11.2002  -25.4497   29.0254 N   0  0  0  0  0  0  0  0  0  0  0  0
  -17.9621  -23.3500   33.6227 N   0  0  0  0  0  0  0  0  0  0  0  0
  -19.0257  -24.3887   33.6723 C   0  0  0  0  0  0  0  0  0  0  0  0
  -19.3202  -24.8185   35.1105 C   0  0  0  0  0  0  0  0  0  0  0  0
  -19.6972  -23.6910   35.9792 N   0  0  0  0  0  0  0  0  0  0  0  0
  -18.5784  -22.7359   35.9976 C   0  0  0  0  0  0  0  0  0  0  0  0
  -18.2212  -22.2241   34.6015 C   0  0  0  0  0  0  0  0  0  0  0  0
  -16.8720  -23.4813   30.2912 H   0  0  0  0  0  0  0  0  0  0  0  0
  -17.1980  -25.6651   31.2613 H   0  0  0  0  0  0  0  0  0  0  0  0
  -15.7874  -25.4133   32.2829 H   0  0  0  0  0  0  0  0  0  0  0  0
  -15.7415  -26.5621   29.8757 H   0  0  0  0  0  0  0  0  0  0  0  0
  -15.8594  -24.9730   29.2165 H   0  0  0  0  0  0  0  0  0  0  0  0
  -13.4831  -26.7349   29.8927 H   0  0  0  0  0  0  0  0  0  0  0  0
  -14.4604  -26.8493   26.7931 H   0  0  0  0  0  0  0  0  0  0  0  0
  -13.9630  -23.4788   26.0494 H   0  0  0  0  0  0  0  0  0  0  0  0
  -12.0445  -23.1011   28.1851 H   0  0  0  0  0  0  0  0  0  0  0  0
  -13.3588  -22.9015   29.3087 H   0  0  0  0  0  0  0  0  0  0  0  0
  -12.2887  -23.6073   31.2812 H   0  0  0  0  0  0  0  0  0  0  0  0
  -10.3048  -22.9001   30.7162 H   0  0  0  0  0  0  0  0  0  0  0  0
   -9.7449  -24.4513   31.3953 H   0  0  0  0  0  0  0  0  0  0  0  0
  -10.1480  -23.6686   28.5234 H   0  0  0  0  0  0  0  0  0  0  0  0
   -9.1217  -24.9048   29.1561 H   0  0  0  0  0  0  0  0  0  0  0  0
  -11.0401  -26.2707   29.6032 H   0  0  0  0  0  0  0  0  0  0  0  0
  -18.7073  -25.2662   33.1007 H   0  0  0  0  0  0  0  0  0  0  0  0
  -19.9575  -24.0089   33.2360 H   0  0  0  0  0  0  0  0  0  0  0  0
  -18.4507  -25.3343   35.5372 H   0  0  0  0  0  0  0  0  0  0  0  0
  -20.1417  -25.5435   35.1086 H   0  0  0  0  0  0  0  0  0  0  0  0
  -20.5161  -23.2290   35.5829 H   0  0  0  0  0  0  0  0  0  0  0  0
  -17.7037  -23.2111   36.4589 H   0  0  0  0  0  0  0  0  0  0  0  0
  -18.8482  -21.8892   36.6384 H   0  0  0  0  0  0  0  0  0  0  0  0
  -17.3180  -21.6100   34.6933 H   0  0  0  0  0  0  0  0  0  0  0  0
  -19.0429  -21.5977   34.2305 H   0  0  0  0  0  0  0  0  0  0  0  0
  1  2  2  0
  2  3  2  0
  2  4  1  0
  4  5  1  0
  5  6  1  0
  6  7  1  0
  7  8  1  0
  8  9  1  0
  8 10  1  0
 10 11  1  0
 10 12  1  0
 12 13  1  0
 13 14  1  0
 14 15  1  0
 15 16  1  0
 16 17  1  0
  2 18  1  0
 18 19  1  0
 19 20  1  0
 20 21  1  0
 21 22  1  0
 22 23  1  0
 13  7  1  0
 23 18  1  0
 17 13  1  0
  4 24  1  0
  5 25  1  0
  5 26  1  0
  6 27  1  0
  6 28  1  0
  7 29  1  0
  9 30  1  0
 11 31  1  0
 12 32  1  0
 12 33  1  0
 14 34  1  0
 15 35  1  0
 15 36  1  0
 16 37  1  0
 16 38  1  0
 17 39  1  0
 19 40  1  0
 19 41  1  0
 20 42  1  0
 20 43  1  0
 21 44  1  0
 22 45  1  0
 22 46  1  0
 23 47  1  0
 23 48  1  0
M  END
>  <Energy>  (341) 
21.888580242368327

>  <compound_id>  (341) 
2568

>  <target_id>  (341) 
1

>  <reference_id>  (341) 
54

>  <inspiration_ids>  (341) 
[173, 54]

>  <energy_score>  (341) 
-5.27906267110529

>  <distance_score>  (341) 
2.0692020359127277

>  <path>  (341) 
/opt/xchem-fragalysis-2/maxwin/BulkDock/SCRATCH/505736/C2568-P54/C2568-P54.minimised.mol

>  <scratch_subdir>  (341) 
/opt/xchem-fragalysis-2/maxwin/BulkDock/SCRATCH/505736/C2568-P54

>  <fragmenstein_runtime>  (341) 
5.051886081695557

>  <fragmenstein_outcome>  (341) 
too moved

>  <fragmenstein_mode>  (341) 
expansion

>  <fragmenstein_error>  (341) 


$$$$
C2569-P173
     RDKit          3D

 58 60  0  0  0  0  0  0  0  0999 V2000
   -9.5152  -26.4846   27.0847 N   0  0  0  0  0  0  0  0  0  0  0  0
  -10.9001  -26.0757   27.0585 C   0  0  0  0  0  0  0  0  0  0  0  0
  -11.4456  -26.3643   25.7121 C   0  0  0  0  0  0  0  0  0  0  0  0
  -12.8764  -25.9165   25.7256 C   0  0  0  0  0  0  0  0  0  0  0  0
  -12.9968  -24.3651   25.9461 C   0  0  0  0  0  0  0  0  0  0  0  0
  -14.7257  -24.2910   25.2612 S   0  0  0  0  0  0  0  0  0  0  0  0
  -14.6312  -22.9385   24.0861 C   0  0  0  0  0  0  0  0  0  0  0  0
  -15.4832  -23.2291   23.0532 F   0  0  0  0  0  0  0  0  0  0  0  0
  -13.4094  -22.8414   23.5164 F   0  0  0  0  0  0  0  0  0  0  0  0
  -12.4447  -24.0017   27.4311 C   0  0  0  0  0  0  0  0  0  0  0  0
  -12.0767  -22.5820   27.9432 C   0  0  0  0  0  0  0  0  0  0  0  0
  -12.4868  -22.4524   29.4184 C   0  0  0  0  0  0  0  0  0  0  0  0
  -12.9799  -23.8260   29.7873 C   0  0  0  0  0  0  0  0  0  0  0  0
  -13.9763  -24.0944   30.9441 C   0  0  0  0  0  0  0  0  0  0  0  0
  -14.3377  -22.9719   31.9342 C   0  0  0  0  0  0  0  0  0  0  0  0
  -15.4008  -22.1532   31.3473 N   0  0  0  0  0  0  0  0  0  0  0  0
  -16.2547  -21.0376   32.2162 S   0  0  0  0  0  0  0  0  0  0  0  0
  -15.3588  -20.3552   33.1139 O   0  0  0  0  0  0  0  0  0  0  0  0
  -17.0274  -20.3092   31.2340 O   0  0  0  0  0  0  0  0  0  0  0  0
  -17.2999  -21.9585   33.1493 N   0  0  0  0  0  0  0  0  0  0  0  0
  -18.2823  -22.7947   32.4085 C   0  0  0  0  0  0  0  0  0  0  0  0
  -19.1374  -23.6215   33.3886 C   0  0  0  0  0  0  0  0  0  0  0  0
  -19.8459  -22.8052   34.3902 N   0  0  0  0  0  0  0  0  0  0  0  0
  -18.8531  -21.9892   35.1167 C   0  0  0  0  0  0  0  0  0  0  0  0
  -17.9949  -21.1150   34.1870 C   0  0  0  0  0  0  0  0  0  0  0  0
  -13.3693  -24.4411   28.4981 N   0  0  0  0  0  0  0  0  0  0  0  0
  -11.0121  -24.5988   27.3674 C   0  0  0  0  0  0  0  0  0  0  0  0
   -9.0461  -26.1643   27.9474 H   0  0  0  0  0  0  0  0  0  0  0  0
   -8.9895  -25.9563   26.3810 H   0  0  0  0  0  0  0  0  0  0  0  0
  -11.5085  -26.6954   27.7075 H   0  0  0  0  0  0  0  0  0  0  0  0
  -10.8933  -25.7911   24.9736 H   0  0  0  0  0  0  0  0  0  0  0  0
  -11.3752  -27.4279   25.4551 H   0  0  0  0  0  0  0  0  0  0  0  0
  -13.2937  -26.2551   24.7698 H   0  0  0  0  0  0  0  0  0  0  0  0
  -13.4365  -26.4642   26.4982 H   0  0  0  0  0  0  0  0  0  0  0  0
  -12.3498  -23.8378   25.2394 H   0  0  0  0  0  0  0  0  0  0  0  0
  -14.9748  -21.9756   24.4445 H   0  0  0  0  0  0  0  0  0  0  0  0
  -10.9995  -22.3797   27.9230 H   0  0  0  0  0  0  0  0  0  0  0  0
  -12.4256  -21.7953   27.3262 H   0  0  0  0  0  0  0  0  0  0  0  0
  -11.6222  -22.1782   30.0241 H   0  0  0  0  0  0  0  0  0  0  0  0
  -13.1736  -21.6412   29.5967 H   0  0  0  0  0  0  0  0  0  0  0  0
  -12.0692  -24.3140   30.1043 H   0  0  0  0  0  0  0  0  0  0  0  0
  -14.8972  -24.5311   30.5377 H   0  0  0  0  0  0  0  0  0  0  0  0
  -13.5439  -24.9097   31.5402 H   0  0  0  0  0  0  0  0  0  0  0  0
  -13.4641  -22.3611   32.1776 H   0  0  0  0  0  0  0  0  0  0  0  0
  -14.7145  -23.4307   32.8549 H   0  0  0  0  0  0  0  0  0  0  0  0
  -15.9955  -22.6461   30.6694 H   0  0  0  0  0  0  0  0  0  0  0  0
  -18.9314  -22.1617   31.7922 H   0  0  0  0  0  0  0  0  0  0  0  0
  -17.7546  -23.4979   31.7595 H   0  0  0  0  0  0  0  0  0  0  0  0
  -19.8783  -24.1957   32.8213 H   0  0  0  0  0  0  0  0  0  0  0  0
  -18.5044  -24.3528   33.9069 H   0  0  0  0  0  0  0  0  0  0  0  0
  -20.4784  -22.1678   33.9046 H   0  0  0  0  0  0  0  0  0  0  0  0
  -18.2079  -22.6522   35.7063 H   0  0  0  0  0  0  0  0  0  0  0  0
  -19.3829  -21.3483   35.8300 H   0  0  0  0  0  0  0  0  0  0  0  0
  -18.6256  -20.3668   33.6909 H   0  0  0  0  0  0  0  0  0  0  0  0
  -17.2531  -20.5949   34.8025 H   0  0  0  0  0  0  0  0  0  0  0  0
  -13.4409  -25.4512   28.5700 H   0  0  0  0  0  0  0  0  0  0  0  0
  -10.4459  -24.3232   28.2489 H   0  0  0  0  0  0  0  0  0  0  0  0
  -10.4704  -24.0727   26.5671 H   0  0  0  0  0  0  0  0  0  0  0  0
  1  2  1  0
  2  3  1  0
  3  4  1  0
  4  5  1  0
  5  6  1  0
  6  7  1  0
  7  8  1  0
  7  9  1  0
  5 10  1  0
 10 11  1  0
 11 12  1  0
 12 13  1  0
 13 14  1  0
 14 15  1  0
 15 16  1  0
 16 17  1  0
 17 18  2  0
 17 19  2  0
 17 20  1  0
 20 21  1  0
 21 22  1  0
 22 23  1  0
 23 24  1  0
 24 25  1  0
 13 26  1  0
 10 27  1  0
 27  2  1  0
 26 10  1  0
 25 20  1  0
  1 28  1  0
  1 29  1  0
  2 30  1  0
  3 31  1  0
  3 32  1  0
  4 33  1  0
  4 34  1  0
  5 35  1  0
  7 36  1  0
 11 37  1  0
 11 38  1  0
 12 39  1  0
 12 40  1  0
 13 41  1  0
 14 42  1  0
 14 43  1  0
 15 44  1  0
 15 45  1  0
 16 46  1  0
 21 47  1  0
 21 48  1  0
 22 49  1  0
 22 50  1  0
 23 51  1  0
 24 52  1  0
 24 53  1  0
 25 54  1  0
 25 55  1  0
 26 56  1  0
 27 57  1  0
 27 58  1  0
M  END
>  <Energy>  (342) 
-46.496588589527349

>  <compound_id>  (342) 
2569

>  <target_id>  (342) 
1

>  <reference_id>  (342) 
173

>  <inspiration_ids>  (342) 
[173, 62]

>  <energy_score>  (342) 
-73.06847770503063

>  <distance_score>  (342) 
2.3343357510847333

>  <path>  (342) 
/opt/xchem-fragalysis-2/maxwin/BulkDock/SCRATCH/505736/C2569-P173/C2569-P173.minimised.mol

>  <scratch_subdir>  (342) 
/opt/xchem-fragalysis-2/maxwin/BulkDock/SCRATCH/505736/C2569-P173

>  <fragmenstein_runtime>  (342) 
7.41316556930542

>  <fragmenstein_outcome>  (342) 
too moved

>  <fragmenstein_mode>  (342) 
expansion

>  <fragmenstein_error>  (342) 


$$$$
C2569-P62
     RDKit          3D

 58 60  0  0  0  0  0  0  0  0999 V2000
  -10.0899  -26.7057   31.8323 N   0  0  0  0  0  0  0  0  0  0  0  0
  -10.9745  -26.1988   30.8056 C   0  0  0  0  0  0  0  0  0  0  0  0
  -10.9172  -27.0287   29.5508 C   0  0  0  0  0  0  0  0  0  0  0  0
  -11.7096  -26.4986   28.3634 C   0  0  0  0  0  0  0  0  0  0  0  0
  -11.7461  -24.9754   28.2009 C   0  0  0  0  0  0  0  0  0  0  0  0
  -13.1388  -24.6687   27.0675 S   0  0  0  0  0  0  0  0  0  0  0  0
  -12.2695  -23.6036   25.9307 C   0  0  0  0  0  0  0  0  0  0  0  0
  -13.0440  -23.3275   24.8528 F   0  0  0  0  0  0  0  0  0  0  0  0
  -11.1316  -24.1810   25.4725 F   0  0  0  0  0  0  0  0  0  0  0  0
  -11.8118  -24.2282   29.5561 C   0  0  0  0  0  0  0  0  0  0  0  0
  -11.8388  -22.7076   29.5256 C   0  0  0  0  0  0  0  0  0  0  0  0
  -12.2704  -22.3449   30.9647 C   0  0  0  0  0  0  0  0  0  0  0  0
  -12.8990  -23.6063   31.5370 C   0  0  0  0  0  0  0  0  0  0  0  0
  -14.1245  -23.6201   32.4408 C   0  0  0  0  0  0  0  0  0  0  0  0
  -14.4633  -22.3206   33.1478 C   0  0  0  0  0  0  0  0  0  0  0  0
  -15.1919  -21.4606   32.2242 N   0  0  0  0  0  0  0  0  0  0  0  0
  -16.3155  -20.3891   32.7666 S   0  0  0  0  0  0  0  0  0  0  0  0
  -15.6390  -19.5035   33.6804 O   0  0  0  0  0  0  0  0  0  0  0  0
  -16.9765  -19.8810   31.5824 O   0  0  0  0  0  0  0  0  0  0  0  0
  -17.3833  -21.3470   33.6332 N   0  0  0  0  0  0  0  0  0  0  0  0
  -18.1019  -22.4146   32.8829 C   0  0  0  0  0  0  0  0  0  0  0  0
  -18.9845  -23.2605   33.8208 C   0  0  0  0  0  0  0  0  0  0  0  0
  -19.9340  -22.4624   34.6137 N   0  0  0  0  0  0  0  0  0  0  0  0
  -19.1659  -21.4613   35.3793 C   0  0  0  0  0  0  0  0  0  0  0  0
  -18.3178  -20.5439   34.4814 C   0  0  0  0  0  0  0  0  0  0  0  0
  -13.0766  -24.3372   30.2865 N   0  0  0  0  0  0  0  0  0  0  0  0
  -10.6374  -24.7816   30.4071 C   0  0  0  0  0  0  0  0  0  0  0  0
  -10.3501  -26.3243   32.7379 H   0  0  0  0  0  0  0  0  0  0  0  0
   -9.1134  -26.4992   31.6500 H   0  0  0  0  0  0  0  0  0  0  0  0
  -11.9721  -26.2941   31.2362 H   0  0  0  0  0  0  0  0  0  0  0  0
   -9.8762  -27.1334   29.2386 H   0  0  0  0  0  0  0  0  0  0  0  0
  -11.3243  -28.0014   29.8167 H   0  0  0  0  0  0  0  0  0  0  0  0
  -11.3161  -26.9577   27.4489 H   0  0  0  0  0  0  0  0  0  0  0  0
  -12.7190  -26.8889   28.4614 H   0  0  0  0  0  0  0  0  0  0  0  0
  -10.8103  -24.6813   27.7104 H   0  0  0  0  0  0  0  0  0  0  0  0
  -11.9625  -22.6939   26.4334 H   0  0  0  0  0  0  0  0  0  0  0  0
  -10.9338  -22.2082   29.1898 H   0  0  0  0  0  0  0  0  0  0  0  0
  -12.6021  -22.3536   28.8330 H   0  0  0  0  0  0  0  0  0  0  0  0
  -11.4227  -22.0029   31.5660 H   0  0  0  0  0  0  0  0  0  0  0  0
  -12.9991  -21.5698   30.9132 H   0  0  0  0  0  0  0  0  0  0  0  0
  -12.1501  -24.0900   32.1726 H   0  0  0  0  0  0  0  0  0  0  0  0
  -13.9476  -24.3818   33.2147 H   0  0  0  0  0  0  0  0  0  0  0  0
  -15.0081  -23.9874   31.9210 H   0  0  0  0  0  0  0  0  0  0  0  0
  -13.5691  -21.8047   33.5073 H   0  0  0  0  0  0  0  0  0  0  0  0
  -15.1057  -22.5664   33.9967 H   0  0  0  0  0  0  0  0  0  0  0  0
  -15.6015  -21.9984   31.4540 H   0  0  0  0  0  0  0  0  0  0  0  0
  -18.7154  -21.9697   32.0913 H   0  0  0  0  0  0  0  0  0  0  0  0
  -17.3812  -23.1024   32.4399 H   0  0  0  0  0  0  0  0  0  0  0  0
  -19.5489  -23.9866   33.2252 H   0  0  0  0  0  0  0  0  0  0  0  0
  -18.3496  -23.8415   34.5019 H   0  0  0  0  0  0  0  0  0  0  0  0
  -20.5591  -21.9669   33.9787 H   0  0  0  0  0  0  0  0  0  0  0  0
  -18.5232  -21.9753   36.1051 H   0  0  0  0  0  0  0  0  0  0  0  0
  -19.8688  -20.8510   35.9569 H   0  0  0  0  0  0  0  0  0  0  0  0
  -18.9713  -19.9416   33.8384 H   0  0  0  0  0  0  0  0  0  0  0  0
  -17.7480  -19.8687   35.1288 H   0  0  0  0  0  0  0  0  0  0  0  0
  -13.4525  -25.2710   30.4302 H   0  0  0  0  0  0  0  0  0  0  0  0
  -10.3989  -24.1860   31.2938 H   0  0  0  0  0  0  0  0  0  0  0  0
   -9.7143  -24.7807   29.8118 H   0  0  0  0  0  0  0  0  0  0  0  0
  1  2  1  0
  2  3  1  0
  3  4  1  0
  4  5  1  0
  5  6  1  0
  6  7  1  0
  7  8  1  0
  7  9  1  0
  5 10  1  0
 10 11  1  0
 11 12  1  0
 12 13  1  0
 13 14  1  0
 14 15  1  0
 15 16  1  0
 16 17  1  0
 17 18  2  0
 17 19  2  0
 17 20  1  0
 20 21  1  0
 21 22  1  0
 22 23  1  0
 23 24  1  0
 24 25  1  0
 13 26  1  0
 10 27  1  0
 27  2  1  0
 26 10  1  0
 25 20  1  0
  1 28  1  0
  1 29  1  0
  2 30  1  0
  3 31  1  0
  3 32  1  0
  4 33  1  0
  4 34  1  0
  5 35  1  0
  7 36  1  0
 11 37  1  0
 11 38  1  0
 12 39  1  0
 12 40  1  0
 13 41  1  0
 14 42  1  0
 14 43  1  0
 15 44  1  0
 15 45  1  0
 16 46  1  0
 21 47  1  0
 21 48  1  0
 22 49  1  0
 22 50  1  0
 23 51  1  0
 24 52  1  0
 24 53  1  0
 25 54  1  0
 25 55  1  0
 26 56  1  0
 27 57  1  0
 27 58  1  0
M  END
>  <Energy>  (343) 
-66.442663077920798

>  <compound_id>  (343) 
2569

>  <target_id>  (343) 
1

>  <reference_id>  (343) 
62

>  <inspiration_ids>  (343) 
[173, 62]

>  <energy_score>  (343) 
-93.01455219342004

>  <distance_score>  (343) 
1.03036343071529

>  <path>  (343) 
/opt/xchem-fragalysis-2/maxwin/BulkDock/SCRATCH/505736/C2569-P62/C2569-P62.minimised.mol

>  <scratch_subdir>  (343) 
/opt/xchem-fragalysis-2/maxwin/BulkDock/SCRATCH/505736/C2569-P62

>  <fragmenstein_runtime>  (343) 
3.9624156951904297

>  <fragmenstein_outcome>  (343) 
too moved

>  <fragmenstein_mode>  (343) 
expansion

>  <fragmenstein_error>  (343) 


$$$$
C2571-P173
     RDKit          3D

 53 56  0  0  0  0  0  0  0  0999 V2000
  -12.4302  -27.1759   26.2949 C   0  0  0  0  0  0  0  0  0  0  0  0
  -13.7490  -26.4933   26.6191 C   0  0  0  0  0  0  0  0  0  0  0  0
  -13.7681  -25.0813   26.9384 N   0  0  0  0  0  0  0  0  0  0  0  0
  -12.8613  -24.2435   26.1532 C   0  0  0  0  0  0  0  0  0  0  0  0
  -11.7568  -23.7045   27.1162 C   0  0  0  0  0  0  0  0  0  0  0  0
  -10.4747  -24.4195   26.8652 C   0  0  0  0  0  0  0  0  0  0  0  0
   -9.9563  -24.7468   25.6042 C   0  0  0  0  0  0  0  0  0  0  0  0
   -8.7153  -25.2163   25.6230 N   0  0  0  0  0  0  0  0  0  0  0  0
   -8.3709  -25.1404   26.8988 N   0  0  0  0  0  0  0  0  0  0  0  0
   -9.4358  -24.7967   27.6503 C   0  0  0  0  0  0  0  0  0  0  0  0
  -12.4128  -23.8983   28.4167 C   0  0  0  0  0  0  0  0  0  0  0  0
  -12.4737  -23.4111   29.6944 C   0  0  0  0  0  0  0  0  0  0  0  0
  -13.5469  -24.1462   30.2772 C   0  0  0  0  0  0  0  0  0  0  0  0
  -13.9897  -24.1779   31.7042 C   0  0  0  0  0  0  0  0  0  0  0  0
  -14.4009  -22.8206   32.2602 C   0  0  0  0  0  0  0  0  0  0  0  0
  -15.7274  -22.4480   31.7587 N   0  0  0  0  0  0  0  0  0  0  0  0
  -16.4197  -21.0341   32.2488 S   0  0  0  0  0  0  0  0  0  0  0  0
  -15.7180  -20.5341   33.4050 O   0  0  0  0  0  0  0  0  0  0  0  0
  -16.6025  -20.2146   31.0723 O   0  0  0  0  0  0  0  0  0  0  0  0
  -17.9284  -21.5908   32.7208 N   0  0  0  0  0  0  0  0  0  0  0  0
  -17.9444  -22.8844   33.4625 C   0  0  0  0  0  0  0  0  0  0  0  0
  -19.3368  -23.1577   34.0474 C   0  0  0  0  0  0  0  0  0  0  0  0
  -19.7771  -22.1613   35.0379 N   0  0  0  0  0  0  0  0  0  0  0  0
  -19.0961  -20.8671   34.8342 C   0  0  0  0  0  0  0  0  0  0  0  0
  -18.7859  -20.5377   33.3615 C   0  0  0  0  0  0  0  0  0  0  0  0
  -14.1621  -24.9250   29.3701 N   0  0  0  0  0  0  0  0  0  0  0  0
  -13.4414  -24.7628   28.2694 N   0  0  0  0  0  0  0  0  0  0  0  0
  -11.6952  -27.0260   27.0869 H   0  0  0  0  0  0  0  0  0  0  0  0
  -12.0087  -26.8446   25.3430 H   0  0  0  0  0  0  0  0  0  0  0  0
  -12.5918  -28.2558   26.2049 H   0  0  0  0  0  0  0  0  0  0  0  0
  -14.3992  -26.6335   25.7454 H   0  0  0  0  0  0  0  0  0  0  0  0
  -14.2438  -27.0573   27.4210 H   0  0  0  0  0  0  0  0  0  0  0  0
  -13.4437  -23.4154   25.7510 H   0  0  0  0  0  0  0  0  0  0  0  0
  -12.4912  -24.7553   25.2770 H   0  0  0  0  0  0  0  0  0  0  0  0
  -11.6170  -22.6327   26.9411 H   0  0  0  0  0  0  0  0  0  0  0  0
  -10.4075  -24.5397   24.6552 H   0  0  0  0  0  0  0  0  0  0  0  0
   -7.4279  -25.3755   27.2073 H   0  0  0  0  0  0  0  0  0  0  0  0
   -9.2608  -24.8360   28.6838 H   0  0  0  0  0  0  0  0  0  0  0  0
  -11.8549  -22.6598   30.1580 H   0  0  0  0  0  0  0  0  0  0  0  0
  -13.1550  -24.5622   32.2941 H   0  0  0  0  0  0  0  0  0  0  0  0
  -14.8120  -24.8943   31.8280 H   0  0  0  0  0  0  0  0  0  0  0  0
  -13.6679  -22.0537   31.9941 H   0  0  0  0  0  0  0  0  0  0  0  0
  -14.4465  -22.8908   33.3529 H   0  0  0  0  0  0  0  0  0  0  0  0
  -15.9910  -22.7566   30.8106 H   0  0  0  0  0  0  0  0  0  0  0  0
  -17.1945  -22.8815   34.2626 H   0  0  0  0  0  0  0  0  0  0  0  0
  -17.7099  -23.6987   32.7683 H   0  0  0  0  0  0  0  0  0  0  0  0
  -19.3520  -24.1453   34.5205 H   0  0  0  0  0  0  0  0  0  0  0  0
  -20.0672  -23.1833   33.2286 H   0  0  0  0  0  0  0  0  0  0  0  0
  -20.7834  -22.0291   34.9410 H   0  0  0  0  0  0  0  0  0  0  0  0
  -19.7179  -20.0736   35.2637 H   0  0  0  0  0  0  0  0  0  0  0  0
  -18.1624  -20.8749   35.4099 H   0  0  0  0  0  0  0  0  0  0  0  0
  -18.3173  -19.5490   33.3012 H   0  0  0  0  0  0  0  0  0  0  0  0
  -19.7171  -20.4766   32.7849 H   0  0  0  0  0  0  0  0  0  0  0  0
  1  2  1  0
  2  3  1  0
  3  4  1  0
  4  5  1  0
  5  6  1  0
  6  7  1  0
  7  8  2  0
  8  9  1  0
  9 10  1  0
  5 11  1  0
 11 12  2  0
 12 13  1  0
 13 14  1  0
 14 15  1  0
 15 16  1  0
 16 17  1  0
 17 18  2  0
 17 19  2  0
 17 20  1  0
 20 21  1  0
 21 22  1  0
 22 23  1  0
 23 24  1  0
 24 25  1  0
 13 26  2  0
 26 27  1  0
 27  3  1  0
 10  6  2  0
 27 11  1  0
 25 20  1  0
  1 28  1  0
  1 29  1  0
  1 30  1  0
  2 31  1  0
  2 32  1  0
  4 33  1  0
  4 34  1  0
  5 35  1  0
  7 36  1  0
  9 37  1  0
 10 38  1  0
 12 39  1  0
 14 40  1  0
 14 41  1  0
 15 42  1  0
 15 43  1  0
 16 44  1  0
 21 45  1  0
 21 46  1  0
 22 47  1  0
 22 48  1  0
 23 49  1  0
 24 50  1  0
 24 51  1  0
 25 52  1  0
 25 53  1  0
M  END
>  <Energy>  (344) 
-93.8844193018422

>  <compound_id>  (344) 
2571

>  <target_id>  (344) 
1

>  <reference_id>  (344) 
173

>  <inspiration_ids>  (344) 
[173, 75]

>  <energy_score>  (344) 
-88.7589428125874

>  <distance_score>  (344) 
1.854039552697291

>  <path>  (344) 
/opt/xchem-fragalysis-2/maxwin/BulkDock/SCRATCH/505736/C2571-P173/C2571-P173.minimised.mol

>  <scratch_subdir>  (344) 
/opt/xchem-fragalysis-2/maxwin/BulkDock/SCRATCH/505736/C2571-P173

>  <fragmenstein_runtime>  (344) 
6.876572608947754

>  <fragmenstein_outcome>  (344) 
too moved

>  <fragmenstein_mode>  (344) 
expansion

>  <fragmenstein_error>  (344) 


$$$$
C2571-P75
     RDKit          3D

 53 56  0  0  0  0  0  0  0  0999 V2000
  -13.0309  -26.1154   25.6240 C   0  0  0  0  0  0  0  0  0  0  0  0
  -13.0994  -24.7630   26.3277 C   0  0  0  0  0  0  0  0  0  0  0  0
  -12.3177  -24.7997   27.5446 N   0  0  0  0  0  0  0  0  0  0  0  0
  -10.8748  -24.8296   27.2649 C   0  0  0  0  0  0  0  0  0  0  0  0
  -10.2294  -24.3251   28.5764 C   0  0  0  0  0  0  0  0  0  0  0  0
   -9.9305  -25.4230   29.5485 C   0  0  0  0  0  0  0  0  0  0  0  0
   -9.9775  -26.8158   29.3346 C   0  0  0  0  0  0  0  0  0  0  0  0
   -9.5704  -27.5092   30.3950 N   0  0  0  0  0  0  0  0  0  0  0  0
   -9.3151  -26.5708   31.3089 N   0  0  0  0  0  0  0  0  0  0  0  0
   -9.5802  -25.3165   30.8803 C   0  0  0  0  0  0  0  0  0  0  0  0
  -11.2885  -23.4238   29.1101 C   0  0  0  0  0  0  0  0  0  0  0  0
  -11.5657  -22.6562   30.2244 C   0  0  0  0  0  0  0  0  0  0  0  0
  -12.9608  -22.8226   30.3678 C   0  0  0  0  0  0  0  0  0  0  0  0
  -13.6864  -23.0166   31.7163 C   0  0  0  0  0  0  0  0  0  0  0  0
  -14.2814  -21.8715   32.4694 C   0  0  0  0  0  0  0  0  0  0  0  0
  -15.3866  -21.3084   31.6868 N   0  0  0  0  0  0  0  0  0  0  0  0
  -16.4646  -20.3429   32.4767 S   0  0  0  0  0  0  0  0  0  0  0  0
  -15.6971  -19.5229   33.3799 O   0  0  0  0  0  0  0  0  0  0  0  0
  -17.2932  -19.7910   31.4345 O   0  0  0  0  0  0  0  0  0  0  0  0
  -17.3418  -21.4496   33.3753 N   0  0  0  0  0  0  0  0  0  0  0  0
  -18.2331  -22.3705   32.6173 C   0  0  0  0  0  0  0  0  0  0  0  0
  -18.8516  -23.4160   33.5658 C   0  0  0  0  0  0  0  0  0  0  0  0
  -19.6182  -22.8067   34.6629 N   0  0  0  0  0  0  0  0  0  0  0  0
  -18.7526  -21.8642   35.3959 C   0  0  0  0  0  0  0  0  0  0  0  0
  -18.1177  -20.7974   34.4861 C   0  0  0  0  0  0  0  0  0  0  0  0
  -13.4962  -23.3045   29.2068 N   0  0  0  0  0  0  0  0  0  0  0  0
  -12.4455  -23.6936   28.4647 N   0  0  0  0  0  0  0  0  0  0  0  0
  -13.7702  -26.1565   24.8197 H   0  0  0  0  0  0  0  0  0  0  0  0
  -12.0434  -26.3030   25.1990 H   0  0  0  0  0  0  0  0  0  0  0  0
  -13.2587  -26.9283   26.3207 H   0  0  0  0  0  0  0  0  0  0  0  0
  -12.8038  -23.9554   25.6494 H   0  0  0  0  0  0  0  0  0  0  0  0
  -14.1480  -24.6333   26.5682 H   0  0  0  0  0  0  0  0  0  0  0  0
  -10.6361  -24.1222   26.4622 H   0  0  0  0  0  0  0  0  0  0  0  0
  -10.5217  -25.8105   26.9391 H   0  0  0  0  0  0  0  0  0  0  0  0
   -9.3207  -23.7882   28.3038 H   0  0  0  0  0  0  0  0  0  0  0  0
  -10.2622  -27.3664   28.4500 H   0  0  0  0  0  0  0  0  0  0  0  0
   -8.9148  -26.8567   32.1981 H   0  0  0  0  0  0  0  0  0  0  0  0
   -9.4539  -24.4842   31.5522 H   0  0  0  0  0  0  0  0  0  0  0  0
  -10.9004  -22.4105   31.0380 H   0  0  0  0  0  0  0  0  0  0  0  0
  -12.9884  -23.5332   32.3905 H   0  0  0  0  0  0  0  0  0  0  0  0
  -14.5621  -23.6619   31.5896 H   0  0  0  0  0  0  0  0  0  0  0  0
  -13.5235  -21.1289   32.7091 H   0  0  0  0  0  0  0  0  0  0  0  0
  -14.6702  -22.2542   33.4211 H   0  0  0  0  0  0  0  0  0  0  0  0
  -15.8096  -21.9131   30.9824 H   0  0  0  0  0  0  0  0  0  0  0  0
  -17.6506  -22.9055   31.8652 H   0  0  0  0  0  0  0  0  0  0  0  0
  -19.0251  -21.8046   32.1128 H   0  0  0  0  0  0  0  0  0  0  0  0
  -19.5190  -24.0679   32.9919 H   0  0  0  0  0  0  0  0  0  0  0  0
  -18.0593  -24.0509   33.9824 H   0  0  0  0  0  0  0  0  0  0  0  0
  -19.9186  -23.5381   35.3077 H   0  0  0  0  0  0  0  0  0  0  0  0
  -19.3509  -21.3677   36.1674 H   0  0  0  0  0  0  0  0  0  0  0  0
  -17.9623  -22.4252   35.9110 H   0  0  0  0  0  0  0  0  0  0  0  0
  -17.4491  -20.1856   35.1009 H   0  0  0  0  0  0  0  0  0  0  0  0
  -18.8952  -20.1495   34.0631 H   0  0  0  0  0  0  0  0  0  0  0  0
  1  2  1  0
  2  3  1  0
  3  4  1  0
  4  5  1  0
  5  6  1  0
  6  7  1  0
  7  8  2  0
  8  9  1  0
  9 10  1  0
  5 11  1  0
 11 12  2  0
 12 13  1  0
 13 14  1  0
 14 15  1  0
 15 16  1  0
 16 17  1  0
 17 18  2  0
 17 19  2  0
 17 20  1  0
 20 21  1  0
 21 22  1  0
 22 23  1  0
 23 24  1  0
 24 25  1  0
 13 26  2  0
 26 27  1  0
 27  3  1  0
 10  6  2  0
 27 11  1  0
 25 20  1  0
  1 28  1  0
  1 29  1  0
  1 30  1  0
  2 31  1  0
  2 32  1  0
  4 33  1  0
  4 34  1  0
  5 35  1  0
  7 36  1  0
  9 37  1  0
 10 38  1  0
 12 39  1  0
 14 40  1  0
 14 41  1  0
 15 42  1  0
 15 43  1  0
 16 44  1  0
 21 45  1  0
 21 46  1  0
 22 47  1  0
 22 48  1  0
 23 49  1  0
 24 50  1  0
 24 51  1  0
 25 52  1  0
 25 53  1  0
M  END
>  <Energy>  (345) 
-89.636112910014262

>  <compound_id>  (345) 
2571

>  <target_id>  (345) 
1

>  <reference_id>  (345) 
75

>  <inspiration_ids>  (345) 
[173, 75]

>  <energy_score>  (345) 
-84.51063642076072

>  <distance_score>  (345) 
0.9040119537282745

>  <path>  (345) 
/opt/xchem-fragalysis-2/maxwin/BulkDock/SCRATCH/505736/C2571-P75/C2571-P75.minimised.mol

>  <scratch_subdir>  (345) 
/opt/xchem-fragalysis-2/maxwin/BulkDock/SCRATCH/505736/C2571-P75

>  <fragmenstein_runtime>  (345) 
4.306154012680054

>  <fragmenstein_outcome>  (345) 
acceptable

>  <fragmenstein_mode>  (345) 
expansion

>  <fragmenstein_error>  (345) 


$$$$
C2572-P173
     RDKit          3D

 73 78  0  0  0  0  0  0  0  0999 V2000
  -17.2450  -27.4300   33.3129 O   0  0  0  0  0  0  0  0  0  0  0  0
  -16.6817  -26.3676   33.2721 C   0  0  0  0  0  0  0  0  0  0  0  0
  -16.2432  -25.8649   31.9075 C   0  0  0  0  0  0  0  0  0  0  0  0
  -16.7657  -26.6989   30.7274 C   0  0  0  0  0  0  0  0  0  0  0  0
  -18.3234  -26.4895   30.4878 C   0  0  0  0  0  0  0  0  0  0  0  0
  -19.3425  -27.3040   31.0221 C   0  0  0  0  0  0  0  0  0  0  0  0
  -20.4997  -26.7235   30.5747 C   0  0  0  0  0  0  0  0  0  0  0  0
  -20.2028  -25.6306   29.8291 O   0  0  0  0  0  0  0  0  0  0  0  0
  -18.8276  -25.4708   29.7772 N   0  0  0  0  0  0  0  0  0  0  0  0
  -16.2844  -28.1784   30.6642 C   0  0  0  0  0  0  0  0  0  0  0  0
  -16.0414  -28.0242   29.2128 N   0  0  0  0  0  0  0  0  0  0  0  0
  -15.9335  -26.5613   29.4165 C   0  0  0  0  0  0  0  0  0  0  0  0
  -16.2411  -25.4764   34.3518 N   0  0  0  0  0  0  0  0  0  0  0  0
  -16.2616  -25.6391   35.7143 C   0  0  0  0  0  0  0  0  0  0  0  0
  -16.3348  -26.9267   36.1000 C   0  0  0  0  0  0  0  0  0  0  0  0
  -16.1442  -27.3361   37.3768 N   0  0  0  0  0  0  0  0  0  0  0  0
  -15.8617  -26.4862   38.3882 C   0  0  0  0  0  0  0  0  0  0  0  0
  -15.5343  -26.8880   39.4991 O   0  0  0  0  0  0  0  0  0  0  0  0
  -16.0222  -25.0371   38.0575 C   0  0  0  0  0  0  0  0  0  0  0  0
  -16.1177  -24.5858   36.7685 C   0  0  0  0  0  0  0  0  0  0  0  0
  -16.1288  -23.0332   36.5228 C   0  0  0  0  0  0  0  0  0  0  0  0
  -16.0618  -22.2481   37.8981 C   0  0  0  0  0  0  0  0  0  0  0  0
  -16.8351  -22.9051   39.0163 C   0  0  0  0  0  0  0  0  0  0  0  0
  -16.1495  -24.2162   39.3094 C   0  0  0  0  0  0  0  0  0  0  0  0
  -17.3760  -22.4620   35.7233 C   0  0  0  0  0  0  0  0  0  0  0  0
  -16.9724  -21.3189   34.8167 N   0  0  0  0  0  0  0  0  0  0  0  0
  -18.1329  -20.5562   33.8804 S   0  0  0  0  0  0  0  0  0  0  0  0
  -17.5247  -19.4434   33.1973 O   0  0  0  0  0  0  0  0  0  0  0  0
  -19.3619  -20.4712   34.6206 O   0  0  0  0  0  0  0  0  0  0  0  0
  -18.3544  -21.7459   32.7424 N   0  0  0  0  0  0  0  0  0  0  0  0
  -17.1920  -22.4890   32.2609 C   0  0  0  0  0  0  0  0  0  0  0  0
  -16.0070  -21.6509   31.8103 C   0  0  0  0  0  0  0  0  0  0  0  0
  -14.7446  -22.4138   31.6267 C   0  0  0  0  0  0  0  0  0  0  0  0
  -13.5274  -22.3040   32.2509 C   0  0  0  0  0  0  0  0  0  0  0  0
  -12.6760  -23.1205   31.5054 C   0  0  0  0  0  0  0  0  0  0  0  0
  -13.2968  -23.7538   30.5121 N   0  0  0  0  0  0  0  0  0  0  0  0
  -14.5617  -23.3484   30.6467 N   0  0  0  0  0  0  0  0  0  0  0  0
  -15.9352  -20.4138   35.3740 C   0  0  0  0  0  0  0  0  0  0  0  0
  -14.6713  -21.2219   35.7109 C   0  0  0  0  0  0  0  0  0  0  0  0
  -14.8723  -22.6851   35.7954 N   0  0  0  0  0  0  0  0  0  0  0  0
  -16.5897  -24.8506   31.7859 H   0  0  0  0  0  0  0  0  0  0  0  0
  -15.1507  -25.8431   31.8966 H   0  0  0  0  0  0  0  0  0  0  0  0
  -19.2511  -28.1770   31.6518 H   0  0  0  0  0  0  0  0  0  0  0  0
  -21.5509  -26.9416   30.6920 H   0  0  0  0  0  0  0  0  0  0  0  0
  -15.3653  -28.3849   31.2276 H   0  0  0  0  0  0  0  0  0  0  0  0
  -17.0081  -28.9585   30.9179 H   0  0  0  0  0  0  0  0  0  0  0  0
  -16.8458  -28.2851   28.6399 H   0  0  0  0  0  0  0  0  0  0  0  0
  -14.8966  -26.2324   29.5568 H   0  0  0  0  0  0  0  0  0  0  0  0
  -16.3623  -25.9641   28.6064 H   0  0  0  0  0  0  0  0  0  0  0  0
  -15.8745  -24.6265   33.9496 H   0  0  0  0  0  0  0  0  0  0  0  0
  -16.4495  -27.7525   35.4109 H   0  0  0  0  0  0  0  0  0  0  0  0
  -16.0745  -28.3278   37.5674 H   0  0  0  0  0  0  0  0  0  0  0  0
  -16.4414  -21.2274   37.8085 H   0  0  0  0  0  0  0  0  0  0  0  0
  -15.0184  -22.1571   38.2356 H   0  0  0  0  0  0  0  0  0  0  0  0
  -16.8237  -22.2721   39.9108 H   0  0  0  0  0  0  0  0  0  0  0  0
  -17.8842  -23.0547   38.7355 H   0  0  0  0  0  0  0  0  0  0  0  0
  -16.7491  -24.7413   40.0632 H   0  0  0  0  0  0  0  0  0  0  0  0
  -15.1563  -24.0498   39.7433 H   0  0  0  0  0  0  0  0  0  0  0  0
  -18.1495  -22.1142   36.4172 H   0  0  0  0  0  0  0  0  0  0  0  0
  -17.8158  -23.2491   35.1042 H   0  0  0  0  0  0  0  0  0  0  0  0
  -19.1630  -22.3143   32.9895 H   0  0  0  0  0  0  0  0  0  0  0  0
  -17.5775  -23.0980   31.4461 H   0  0  0  0  0  0  0  0  0  0  0  0
  -16.8913  -23.1818   33.0419 H   0  0  0  0  0  0  0  0  0  0  0  0
  -16.2729  -21.1330   30.8891 H   0  0  0  0  0  0  0  0  0  0  0  0
  -15.7665  -20.8600   32.5211 H   0  0  0  0  0  0  0  0  0  0  0  0
  -13.2343  -21.6688   33.0706 H   0  0  0  0  0  0  0  0  0  0  0  0
  -11.6243  -23.2517   31.6751 H   0  0  0  0  0  0  0  0  0  0  0  0
  -15.2597  -23.6969   29.9941 H   0  0  0  0  0  0  0  0  0  0  0  0
  -16.3334  -19.8910   36.2482 H   0  0  0  0  0  0  0  0  0  0  0  0
  -15.6413  -19.6457   34.6516 H   0  0  0  0  0  0  0  0  0  0  0  0
  -14.2181  -20.8349   36.6310 H   0  0  0  0  0  0  0  0  0  0  0  0
  -13.9127  -21.0314   34.9480 H   0  0  0  0  0  0  0  0  0  0  0  0
  -14.9538  -23.0114   34.8353 H   0  0  0  0  0  0  0  0  0  0  0  0
  1  2  2  0
  2  3  1  0
  3  4  1  0
  4  5  1  0
  5  6  1  0
  6  7  2  0
  7  8  1  0
  8  9  1  0
  4 10  1  0
 10 11  1  0
 11 12  1  0
  2 13  1  0
 13 14  1  0
 14 15  2  0
 15 16  1  0
 16 17  1  0
 17 18  2  0
 17 19  1  0
 19 20  2  0
 20 21  1  0
 21 22  1  0
 22 23  1  0
 23 24  1  0
 21 25  1  0
 25 26  1  0
 26 27  1  0
 27 28  2  0
 27 29  2  0
 27 30  1  0
 30 31  1  0
 31 32  1  0
 32 33  1  0
 33 34  2  0
 34 35  1  0
 35 36  2  0
 36 37  1  0
 26 38  1  0
 38 39  1  0
 39 40  1  0
 12  4  1  0
 20 14  1  0
 40 21  1  0
  9  5  2  0
 24 19  1  0
 37 33  1  0
  3 41  1  0
  3 42  1  0
  6 43  1  0
  7 44  1  0
 10 45  1  0
 10 46  1  0
 11 47  1  0
 12 48  1  0
 12 49  1  0
 13 50  1  0
 15 51  1  0
 16 52  1  0
 22 53  1  0
 22 54  1  0
 23 55  1  0
 23 56  1  0
 24 57  1  0
 24 58  1  0
 25 59  1  0
 25 60  1  0
 30 61  1  0
 31 62  1  0
 31 63  1  0
 32 64  1  0
 32 65  1  0
 34 66  1  0
 35 67  1  0
 37 68  1  0
 38 69  1  0
 38 70  1  0
 39 71  1  0
 39 72  1  0
 40 73  1  0
M  END
>  <Energy>  (346) 
-65.451602782193689

>  <compound_id>  (346) 
2572

>  <target_id>  (346) 
1

>  <reference_id>  (346) 
173

>  <inspiration_ids>  (346) 
[173, 82]

>  <energy_score>  (346) 
-99.31811773653203

>  <distance_score>  (346) 
4.867066062219737

>  <path>  (346) 
/opt/xchem-fragalysis-2/maxwin/BulkDock/SCRATCH/505736/C2572-P173/C2572-P173.minimised.mol

>  <scratch_subdir>  (346) 
/opt/xchem-fragalysis-2/maxwin/BulkDock/SCRATCH/505736/C2572-P173

>  <fragmenstein_runtime>  (346) 
37.21124505996704

>  <fragmenstein_outcome>  (346) 
too moved

>  <fragmenstein_mode>  (346) 
expansion

>  <fragmenstein_error>  (346) 


$$$$
C2572-P82
     RDKit          3D

 73 78  0  0  0  0  0  0  0  0999 V2000
  -11.2384  -25.9101   29.5747 O   0  0  0  0  0  0  0  0  0  0  0  0
  -12.1967  -25.1966   29.4405 C   0  0  0  0  0  0  0  0  0  0  0  0
  -12.7708  -24.9471   28.0946 C   0  0  0  0  0  0  0  0  0  0  0  0
  -12.4003  -25.6899   26.8440 C   0  0  0  0  0  0  0  0  0  0  0  0
  -13.3104  -25.0894   25.7061 C   0  0  0  0  0  0  0  0  0  0  0  0
  -13.1244  -23.7884   25.2113 C   0  0  0  0  0  0  0  0  0  0  0  0
  -14.2476  -23.5683   24.4709 C   0  0  0  0  0  0  0  0  0  0  0  0
  -15.0390  -24.6680   24.4891 O   0  0  0  0  0  0  0  0  0  0  0  0
  -14.4435  -25.6480   25.2706 N   0  0  0  0  0  0  0  0  0  0  0  0
  -12.2692  -27.2330   26.7770 C   0  0  0  0  0  0  0  0  0  0  0  0
  -11.1332  -27.0186   25.8343 N   0  0  0  0  0  0  0  0  0  0  0  0
  -10.9283  -25.6956   26.4905 C   0  0  0  0  0  0  0  0  0  0  0  0
  -13.0248  -24.4844   30.4487 N   0  0  0  0  0  0  0  0  0  0  0  0
  -12.9887  -24.5087   31.8079 C   0  0  0  0  0  0  0  0  0  0  0  0
  -11.8213  -25.0421   32.2361 C   0  0  0  0  0  0  0  0  0  0  0  0
  -11.5795  -25.2015   33.5443 N   0  0  0  0  0  0  0  0  0  0  0  0
  -12.3782  -24.3863   34.2459 C   0  0  0  0  0  0  0  0  0  0  0  0
  -11.8500  -23.4096   34.7463 O   0  0  0  0  0  0  0  0  0  0  0  0
  -13.8626  -24.5650   34.0816 C   0  0  0  0  0  0  0  0  0  0  0  0
  -14.2265  -24.1082   32.8720 C   0  0  0  0  0  0  0  0  0  0  0  0
  -15.8903  -23.7889   32.9491 C   0  0  0  0  0  0  0  0  0  0  0  0
  -16.7625  -25.0560   33.2842 C   0  0  0  0  0  0  0  0  0  0  0  0
  -16.2464  -25.8355   34.4756 C   0  0  0  0  0  0  0  0  0  0  0  0
  -14.7995  -25.5218   34.8865 C   0  0  0  0  0  0  0  0  0  0  0  0
  -16.5334  -22.9389   31.7722 C   0  0  0  0  0  0  0  0  0  0  0  0
  -17.3247  -21.7389   32.2575 N   0  0  0  0  0  0  0  0  0  0  0  0
  -16.4747  -20.3202   32.5468 S   0  0  0  0  0  0  0  0  0  0  0  0
  -17.2099  -19.4962   33.4646 O   0  0  0  0  0  0  0  0  0  0  0  0
  -16.0692  -19.8728   31.2352 O   0  0  0  0  0  0  0  0  0  0  0  0
  -15.1230  -20.8871   33.3305 N   0  0  0  0  0  0  0  0  0  0  0  0
  -14.1879  -20.0246   34.0827 C   0  0  0  0  0  0  0  0  0  0  0  0
  -12.7107  -20.5255   33.9579 C   0  0  0  0  0  0  0  0  0  0  0  0
  -12.3377  -21.2048   32.6690 C   0  0  0  0  0  0  0  0  0  0  0  0
  -11.1908  -21.2557   31.9207 C   0  0  0  0  0  0  0  0  0  0  0  0
  -11.5897  -21.6786   30.6309 C   0  0  0  0  0  0  0  0  0  0  0  0
  -12.8834  -21.9364   30.5795 N   0  0  0  0  0  0  0  0  0  0  0  0
  -13.2701  -21.7485   31.8471 N   0  0  0  0  0  0  0  0  0  0  0  0
  -18.2931  -22.1237   33.3097 C   0  0  0  0  0  0  0  0  0  0  0  0
  -17.5294  -22.5631   34.5568 C   0  0  0  0  0  0  0  0  0  0  0  0
  -16.1269  -22.9639   34.2717 N   0  0  0  0  0  0  0  0  0  0  0  0
  -13.7954  -25.2531   28.2105 H   0  0  0  0  0  0  0  0  0  0  0  0
  -12.6733  -23.8671   27.9274 H   0  0  0  0  0  0  0  0  0  0  0  0
  -12.3397  -23.0779   25.4211 H   0  0  0  0  0  0  0  0  0  0  0  0
  -14.6218  -22.7101   23.9413 H   0  0  0  0  0  0  0  0  0  0  0  0
  -11.9843  -27.7113   27.7206 H   0  0  0  0  0  0  0  0  0  0  0  0
  -13.1080  -27.7928   26.3539 H   0  0  0  0  0  0  0  0  0  0  0  0
  -10.3577  -27.6718   25.9434 H   0  0  0  0  0  0  0  0  0  0  0  0
  -10.2360  -25.7310   27.3376 H   0  0  0  0  0  0  0  0  0  0  0  0
  -10.6485  -24.8651   25.8375 H   0  0  0  0  0  0  0  0  0  0  0  0
  -13.8059  -24.0384   29.9841 H   0  0  0  0  0  0  0  0  0  0  0  0
  -10.9776  -25.3216   31.6227 H   0  0  0  0  0  0  0  0  0  0  0  0
  -10.5981  -25.1730   33.7765 H   0  0  0  0  0  0  0  0  0  0  0  0
  -16.9044  -25.7625   32.4711 H   0  0  0  0  0  0  0  0  0  0  0  0
  -17.8086  -24.7936   33.4756 H   0  0  0  0  0  0  0  0  0  0  0  0
  -16.9029  -25.6332   35.3335 H   0  0  0  0  0  0  0  0  0  0  0  0
  -16.3567  -26.9118   34.2901 H   0  0  0  0  0  0  0  0  0  0  0  0
  -14.2748  -26.4506   34.9393 H   0  0  0  0  0  0  0  0  0  0  0  0
  -14.8935  -25.4221   35.9471 H   0  0  0  0  0  0  0  0  0  0  0  0
  -17.2570  -23.5389   31.2068 H   0  0  0  0  0  0  0  0  0  0  0  0
  -15.7890  -22.5966   31.0538 H   0  0  0  0  0  0  0  0  0  0  0  0
  -15.4294  -21.6308   33.9787 H   0  0  0  0  0  0  0  0  0  0  0  0
  -14.4888  -19.9636   35.1277 H   0  0  0  0  0  0  0  0  0  0  0  0
  -14.2672  -18.9900   33.7782 H   0  0  0  0  0  0  0  0  0  0  0  0
  -12.4450  -21.1563   34.7898 H   0  0  0  0  0  0  0  0  0  0  0  0
  -12.0648  -19.6463   34.0859 H   0  0  0  0  0  0  0  0  0  0  0  0
  -10.2439  -20.8377   32.2068 H   0  0  0  0  0  0  0  0  0  0  0  0
  -11.0425  -21.7336   29.7016 H   0  0  0  0  0  0  0  0  0  0  0  0
  -14.2515  -21.8093   32.0716 H   0  0  0  0  0  0  0  0  0  0  0  0
  -18.9149  -22.9401   32.9245 H   0  0  0  0  0  0  0  0  0  0  0  0
  -18.9852  -21.3039   33.5286 H   0  0  0  0  0  0  0  0  0  0  0  0
  -18.0752  -23.3542   35.0824 H   0  0  0  0  0  0  0  0  0  0  0  0
  -17.4807  -21.7257   35.2631 H   0  0  0  0  0  0  0  0  0  0  0  0
  -15.8039  -23.4891   35.0779 H   0  0  0  0  0  0  0  0  0  0  0  0
  1  2  2  0
  2  3  1  0
  3  4  1  0
  4  5  1  0
  5  6  1  0
  6  7  2  0
  7  8  1  0
  8  9  1  0
  4 10  1  0
 10 11  1  0
 11 12  1  0
  2 13  1  0
 13 14  1  0
 14 15  2  0
 15 16  1  0
 16 17  1  0
 17 18  2  0
 17 19  1  0
 19 20  2  0
 20 21  1  0
 21 22  1  0
 22 23  1  0
 23 24  1  0
 21 25  1  0
 25 26  1  0
 26 27  1  0
 27 28  2  0
 27 29  2  0
 27 30  1  0
 30 31  1  0
 31 32  1  0
 32 33  1  0
 33 34  2  0
 34 35  1  0
 35 36  2  0
 36 37  1  0
 26 38  1  0
 38 39  1  0
 39 40  1  0
 12  4  1  0
 20 14  1  0
 40 21  1  0
  9  5  2  0
 24 19  1  0
 37 33  1  0
  3 41  1  0
  3 42  1  0
  6 43  1  0
  7 44  1  0
 10 45  1  0
 10 46  1  0
 11 47  1  0
 12 48  1  0
 12 49  1  0
 13 50  1  0
 15 51  1  0
 16 52  1  0
 22 53  1  0
 22 54  1  0
 23 55  1  0
 23 56  1  0
 24 57  1  0
 24 58  1  0
 25 59  1  0
 25 60  1  0
 30 61  1  0
 31 62  1  0
 31 63  1  0
 32 64  1  0
 32 65  1  0
 34 66  1  0
 35 67  1  0
 37 68  1  0
 38 69  1  0
 38 70  1  0
 39 71  1  0
 39 72  1  0
 40 73  1  0
M  END
>  <Energy>  (347) 
82.071977354209196

>  <compound_id>  (347) 
2572

>  <target_id>  (347) 
1

>  <reference_id>  (347) 
82

>  <inspiration_ids>  (347) 
[173, 82]

>  <energy_score>  (347) 
48.20546239986274

>  <distance_score>  (347) 
2.497643252696027

>  <path>  (347) 
/opt/xchem-fragalysis-2/maxwin/BulkDock/SCRATCH/505736/C2572-P82/C2572-P82.minimised.mol

>  <scratch_subdir>  (347) 
/opt/xchem-fragalysis-2/maxwin/BulkDock/SCRATCH/505736/C2572-P82

>  <fragmenstein_runtime>  (347) 
23.021803855895996

>  <fragmenstein_outcome>  (347) 
too moved

>  <fragmenstein_mode>  (347) 
expansion

>  <fragmenstein_error>  (347) 


$$$$
C2207-P173
     RDKit          3D

 56 59  0  0  0  0  0  0  0  0999 V2000
  -13.2335  -20.9505   39.7941 C   0  0  0  0  0  0  0  0  0  0  0  0
  -12.2918  -20.1470   38.9350 C   0  0  0  0  0  0  0  0  0  0  0  0
  -11.0935  -19.7166   39.5425 C   0  0  0  0  0  0  0  0  0  0  0  0
  -10.1475  -18.9728   38.8410 C   0  0  0  0  0  0  0  0  0  0  0  0
  -10.3719  -18.6558   37.5097 C   0  0  0  0  0  0  0  0  0  0  0  0
  -11.5506  -19.0656   36.8834 C   0  0  0  0  0  0  0  0  0  0  0  0
  -12.5331  -19.7982   37.5830 C   0  0  0  0  0  0  0  0  0  0  0  0
  -13.7480  -20.1245   36.9023 N   0  0  0  0  0  0  0  0  0  0  0  0
  -14.0886  -19.8651   35.5920 C   0  0  0  0  0  0  0  0  0  0  0  0
  -15.4083  -20.2490   35.4677 C   0  0  0  0  0  0  0  0  0  0  0  0
  -16.2363  -20.1118   34.2843 C   0  0  0  0  0  0  0  0  0  0  0  0
  -15.7901  -19.7230   33.2083 O   0  0  0  0  0  0  0  0  0  0  0  0
  -17.5457  -20.4339   34.4916 O   0  0  0  0  0  0  0  0  0  0  0  0
  -18.4112  -20.2123   33.3665 C   0  0  0  0  0  0  0  0  0  0  0  0
  -18.3832  -21.4174   32.4248 C   0  0  0  0  0  0  0  0  0  0  0  0
  -19.1099  -22.6147   33.0371 C   0  0  0  0  0  0  0  0  0  0  0  0
  -18.9828  -23.8791   32.1869 C   0  0  0  0  0  0  0  0  0  0  0  0
  -17.8282  -24.7434   32.6856 C   0  0  0  0  0  0  0  0  0  0  0  0
  -18.0200  -25.4489   33.6336 O   0  0  0  0  0  0  0  0  0  0  0  0
  -16.6407  -24.4857   31.9414 N   0  0  0  0  0  0  0  0  0  0  0  0
  -15.3252  -25.0608   32.0339 C   0  0  0  0  0  0  0  0  0  0  0  0
  -14.3316  -24.3877   31.1205 C   0  0  0  0  0  0  0  0  0  0  0  0
  -13.5828  -23.3080   31.5955 C   0  0  0  0  0  0  0  0  0  0  0  0
  -12.6682  -22.6743   30.7540 C   0  0  0  0  0  0  0  0  0  0  0  0
  -12.5402  -23.1702   29.4517 C   0  0  0  0  0  0  0  0  0  0  0  0
  -11.7607  -22.8597   28.3121 C   0  0  0  0  0  0  0  0  0  0  0  0
  -12.0691  -23.7688   27.3244 C   0  0  0  0  0  0  0  0  0  0  0  0
  -13.0370  -24.6000   27.8152 N   0  0  0  0  0  0  0  0  0  0  0  0
  -13.3479  -24.2390   29.0949 C   0  0  0  0  0  0  0  0  0  0  0  0
  -14.2575  -24.8697   29.8518 N   0  0  0  0  0  0  0  0  0  0  0  0
  -15.8235  -20.7734   36.6577 N   0  0  0  0  0  0  0  0  0  0  0  0
  -14.8084  -20.7139   37.5095 N   0  0  0  0  0  0  0  0  0  0  0  0
  -12.7901  -21.1783   40.7703 H   0  0  0  0  0  0  0  0  0  0  0  0
  -14.1527  -20.3896   39.9880 H   0  0  0  0  0  0  0  0  0  0  0  0
  -13.4563  -21.9152   39.3280 H   0  0  0  0  0  0  0  0  0  0  0  0
  -10.8897  -19.9607   40.5837 H   0  0  0  0  0  0  0  0  0  0  0  0
   -9.2341  -18.6489   39.3323 H   0  0  0  0  0  0  0  0  0  0  0  0
   -9.6349  -18.0840   36.9507 H   0  0  0  0  0  0  0  0  0  0  0  0
  -11.6692  -18.7746   35.8422 H   0  0  0  0  0  0  0  0  0  0  0  0
  -13.4127  -19.4206   34.8791 H   0  0  0  0  0  0  0  0  0  0  0  0
  -18.1294  -19.2964   32.8335 H   0  0  0  0  0  0  0  0  0  0  0  0
  -19.4215  -20.0482   33.7566 H   0  0  0  0  0  0  0  0  0  0  0  0
  -18.8734  -21.1475   31.4830 H   0  0  0  0  0  0  0  0  0  0  0  0
  -17.3482  -21.6908   32.1946 H   0  0  0  0  0  0  0  0  0  0  0  0
  -20.1739  -22.3598   33.1225 H   0  0  0  0  0  0  0  0  0  0  0  0
  -18.7475  -22.7986   34.0556 H   0  0  0  0  0  0  0  0  0  0  0  0
  -19.8916  -24.4848   32.2966 H   0  0  0  0  0  0  0  0  0  0  0  0
  -18.8990  -23.6540   31.1192 H   0  0  0  0  0  0  0  0  0  0  0  0
  -16.8704  -23.8927   31.1433 H   0  0  0  0  0  0  0  0  0  0  0  0
  -15.0125  -25.0033   33.0811 H   0  0  0  0  0  0  0  0  0  0  0  0
  -15.4224  -26.1186   31.7686 H   0  0  0  0  0  0  0  0  0  0  0  0
  -13.6827  -22.9778   32.6260 H   0  0  0  0  0  0  0  0  0  0  0  0
  -12.0561  -21.8569   31.1201 H   0  0  0  0  0  0  0  0  0  0  0  0
  -11.0426  -22.0603   28.2169 H   0  0  0  0  0  0  0  0  0  0  0  0
  -11.6980  -23.8793   26.3145 H   0  0  0  0  0  0  0  0  0  0  0  0
  -13.4718  -25.3693   27.3290 H   0  0  0  0  0  0  0  0  0  0  0  0
  1  2  1  0
  2  3  2  0
  3  4  1  0
  4  5  2  0
  5  6  1  0
  6  7  2  0
  7  8  1  0
  8  9  1  0
  9 10  2  0
 10 11  1  0
 11 12  2  0
 11 13  1  0
 13 14  1  0
 14 15  1  0
 15 16  1  0
 16 17  1  0
 17 18  1  0
 18 19  2  0
 18 20  1  0
 20 21  1  0
 21 22  1  0
 22 23  2  0
 23 24  1  0
 24 25  2  0
 25 26  1  0
 26 27  2  0
 27 28  1  0
 28 29  1  0
 29 30  2  0
 10 31  1  0
 31 32  2  0
  7  2  1  0
 32  8  1  0
 30 22  1  0
 29 25  1  0
  1 33  1  0
  1 34  1  0
  1 35  1  0
  3 36  1  0
  4 37  1  0
  5 38  1  0
  6 39  1  0
  9 40  1  0
 14 41  1  0
 14 42  1  0
 15 43  1  0
 15 44  1  0
 16 45  1  0
 16 46  1  0
 17 47  1  0
 17 48  1  0
 20 49  1  0
 21 50  1  0
 21 51  1  0
 23 52  1  0
 24 53  1  0
 26 54  1  0
 27 55  1  0
 28 56  1  0
M  END
>  <Energy>  (348) 
75.013737481572235

>  <compound_id>  (348) 
2207

>  <target_id>  (348) 
1

>  <reference_id>  (348) 
173

>  <inspiration_ids>  (348) 
[173, 94]

>  <energy_score>  (348) 
-33.690604007339516

>  <distance_score>  (348) 
3.540351615298044

>  <path>  (348) 
/opt/xchem-fragalysis-2/maxwin/BulkDock/SCRATCH/505736/C2207-P173/C2207-P173.minimised.mol

>  <scratch_subdir>  (348) 
/opt/xchem-fragalysis-2/maxwin/BulkDock/SCRATCH/505736/C2207-P173

>  <fragmenstein_runtime>  (348) 
24.408387184143066

>  <fragmenstein_outcome>  (348) 
too moved

>  <fragmenstein_mode>  (348) 
expansion

>  <fragmenstein_error>  (348) 


$$$$
C2207-P94
     RDKit          3D

 56 59  0  0  0  0  0  0  0  0999 V2000
  -25.0646  -14.6898   32.9617 C   0  0  0  0  0  0  0  0  0  0  0  0
  -23.9202  -14.6641   31.9806 C   0  0  0  0  0  0  0  0  0  0  0  0
  -23.8489  -13.5445   31.1236 C   0  0  0  0  0  0  0  0  0  0  0  0
  -22.8278  -13.4062   30.1856 C   0  0  0  0  0  0  0  0  0  0  0  0
  -21.8540  -14.3863   30.0826 C   0  0  0  0  0  0  0  0  0  0  0  0
  -21.9054  -15.5046   30.9171 C   0  0  0  0  0  0  0  0  0  0  0  0
  -22.9282  -15.6691   31.8721 C   0  0  0  0  0  0  0  0  0  0  0  0
  -22.9228  -16.8515   32.6803 N   0  0  0  0  0  0  0  0  0  0  0  0
  -21.9698  -17.8482   32.7512 C   0  0  0  0  0  0  0  0  0  0  0  0
  -22.4887  -18.8034   33.6006 C   0  0  0  0  0  0  0  0  0  0  0  0
  -21.9344  -20.0907   33.9917 C   0  0  0  0  0  0  0  0  0  0  0  0
  -22.4768  -20.8349   34.8022 O   0  0  0  0  0  0  0  0  0  0  0  0
  -20.7715  -20.4096   33.3313 O   0  0  0  0  0  0  0  0  0  0  0  0
  -20.2867  -21.7176   33.6629 C   0  0  0  0  0  0  0  0  0  0  0  0
  -19.0541  -22.0730   32.8319 C   0  0  0  0  0  0  0  0  0  0  0  0
  -17.8305  -21.2313   33.2017 C   0  0  0  0  0  0  0  0  0  0  0  0
  -16.5715  -21.8619   32.6211 C   0  0  0  0  0  0  0  0  0  0  0  0
  -15.2983  -21.1022   32.9790 C   0  0  0  0  0  0  0  0  0  0  0  0
  -15.2696  -20.0206   33.4111 O   0  0  0  0  0  0  0  0  0  0  0  0
  -14.1474  -22.0567   32.5938 N   0  0  0  0  0  0  0  0  0  0  0  0
  -12.7264  -21.9152   32.7486 C   0  0  0  0  0  0  0  0  0  0  0  0
  -12.0353  -22.7548   31.7088 C   0  0  0  0  0  0  0  0  0  0  0  0
  -12.0923  -22.4644   30.3416 C   0  0  0  0  0  0  0  0  0  0  0  0
  -11.6333  -23.3881   29.3964 C   0  0  0  0  0  0  0  0  0  0  0  0
  -11.0912  -24.5782   29.8943 C   0  0  0  0  0  0  0  0  0  0  0  0
  -10.4913  -25.7412   29.3627 C   0  0  0  0  0  0  0  0  0  0  0  0
  -10.0882  -26.5039   30.4345 C   0  0  0  0  0  0  0  0  0  0  0  0
  -10.4297  -25.8770   31.5934 N   0  0  0  0  0  0  0  0  0  0  0  0
  -11.0398  -24.7119   31.2737 C   0  0  0  0  0  0  0  0  0  0  0  0
  -11.4811  -23.8689   32.1990 N   0  0  0  0  0  0  0  0  0  0  0  0
  -23.7012  -18.3585   34.0540 N   0  0  0  0  0  0  0  0  0  0  0  0
  -23.9462  -17.1799   33.5024 N   0  0  0  0  0  0  0  0  0  0  0  0
  -25.7507  -15.5109   32.7328 H   0  0  0  0  0  0  0  0  0  0  0  0
  -24.6930  -14.7664   33.9882 H   0  0  0  0  0  0  0  0  0  0  0  0
  -25.6530  -13.7661   32.9163 H   0  0  0  0  0  0  0  0  0  0  0  0
  -24.6022  -12.7599   31.1845 H   0  0  0  0  0  0  0  0  0  0  0  0
  -22.7954  -12.5347   29.5362 H   0  0  0  0  0  0  0  0  0  0  0  0
  -21.0520  -14.2867   29.3529 H   0  0  0  0  0  0  0  0  0  0  0  0
  -21.1148  -16.2347   30.7920 H   0  0  0  0  0  0  0  0  0  0  0  0
  -21.0334  -17.8130   32.2207 H   0  0  0  0  0  0  0  0  0  0  0  0
  -21.0699  -22.4542   33.4443 H   0  0  0  0  0  0  0  0  0  0  0  0
  -20.0445  -21.7613   34.7316 H   0  0  0  0  0  0  0  0  0  0  0  0
  -18.8336  -23.1353   32.9916 H   0  0  0  0  0  0  0  0  0  0  0  0
  -19.2725  -21.9350   31.7661 H   0  0  0  0  0  0  0  0  0  0  0  0
  -17.9533  -20.2059   32.8326 H   0  0  0  0  0  0  0  0  0  0  0  0
  -17.7311  -21.1665   34.2922 H   0  0  0  0  0  0  0  0  0  0  0  0
  -16.4896  -22.8854   33.0063 H   0  0  0  0  0  0  0  0  0  0  0  0
  -16.6416  -21.9047   31.5276 H   0  0  0  0  0  0  0  0  0  0  0  0
  -14.5353  -22.9712   32.3211 H   0  0  0  0  0  0  0  0  0  0  0  0
  -12.4033  -20.8803   32.7196 H   0  0  0  0  0  0  0  0  0  0  0  0
  -12.4867  -22.2833   33.7521 H   0  0  0  0  0  0  0  0  0  0  0  0
  -12.5277  -21.5505   29.9792 H   0  0  0  0  0  0  0  0  0  0  0  0
  -11.6966  -23.1848   28.3329 H   0  0  0  0  0  0  0  0  0  0  0  0
  -10.3271  -25.9731   28.3202 H   0  0  0  0  0  0  0  0  0  0  0  0
   -9.5380  -27.4215   30.5133 H   0  0  0  0  0  0  0  0  0  0  0  0
  -10.2156  -26.1948   32.5302 H   0  0  0  0  0  0  0  0  0  0  0  0
  1  2  1  0
  2  3  2  0
  3  4  1  0
  4  5  2  0
  5  6  1  0
  6  7  2  0
  7  8  1  0
  8  9  1  0
  9 10  2  0
 10 11  1  0
 11 12  2  0
 11 13  1  0
 13 14  1  0
 14 15  1  0
 15 16  1  0
 16 17  1  0
 17 18  1  0
 18 19  2  0
 18 20  1  0
 20 21  1  0
 21 22  1  0
 22 23  2  0
 23 24  1  0
 24 25  2  0
 25 26  1  0
 26 27  2  0
 27 28  1  0
 28 29  1  0
 29 30  2  0
 10 31  1  0
 31 32  2  0
  7  2  1  0
 32  8  1  0
 30 22  1  0
 29 25  1  0
  1 33  1  0
  1 34  1  0
  1 35  1  0
  3 36  1  0
  4 37  1  0
  5 38  1  0
  6 39  1  0
  9 40  1  0
 14 41  1  0
 14 42  1  0
 15 43  1  0
 15 44  1  0
 16 45  1  0
 16 46  1  0
 17 47  1  0
 17 48  1  0
 20 49  1  0
 21 50  1  0
 21 51  1  0
 23 52  1  0
 24 53  1  0
 26 54  1  0
 27 55  1  0
 28 56  1  0
M  END
>  <Energy>  (349) 
87.937010070805627

>  <compound_id>  (349) 
2207

>  <target_id>  (349) 
1

>  <reference_id>  (349) 
94

>  <inspiration_ids>  (349) 
[173, 94]

>  <energy_score>  (349) 
-21.15439769688382

>  <distance_score>  (349) 
2.4496273123035075

>  <path>  (349) 
/opt/xchem-fragalysis-2/maxwin/BulkDock/SCRATCH/505736/C2207-P94/C2207-P94.minimised.mol

>  <scratch_subdir>  (349) 
/opt/xchem-fragalysis-2/maxwin/BulkDock/SCRATCH/505736/C2207-P94

>  <fragmenstein_runtime>  (349) 
16.456307649612427

>  <fragmenstein_outcome>  (349) 
too moved

>  <fragmenstein_mode>  (349) 
expansion

>  <fragmenstein_error>  (349) 


$$$$
C2573-P173
     RDKit          3D

 57 60  0  0  0  0  0  0  0  0999 V2000
  -17.5994  -24.8975   33.9408 O   0  0  0  0  0  0  0  0  0  0  0  0
  -17.5556  -24.4618   32.8281 C   0  0  0  0  0  0  0  0  0  0  0  0
  -18.8061  -23.8271   32.2111 C   0  0  0  0  0  0  0  0  0  0  0  0
  -19.8348  -23.4582   33.2837 C   0  0  0  0  0  0  0  0  0  0  0  0
  -21.1158  -22.8623   32.6881 C   0  0  0  0  0  0  0  0  0  0  0  0
  -21.7182  -21.7484   33.5553 C   0  0  0  0  0  0  0  0  0  0  0  0
  -21.0211  -20.5358   33.2364 O   0  0  0  0  0  0  0  0  0  0  0  0
  -20.0218  -20.1952   34.0861 C   0  0  0  0  0  0  0  0  0  0  0  0
  -19.9634  -20.3865   35.2843 O   0  0  0  0  0  0  0  0  0  0  0  0
  -18.9607  -19.6298   33.2388 C   0  0  0  0  0  0  0  0  0  0  0  0
  -17.7829  -20.3759   33.1468 C   0  0  0  0  0  0  0  0  0  0  0  0
  -16.8779  -20.0967   32.1360 C   0  0  0  0  0  0  0  0  0  0  0  0
  -17.1358  -19.0435   31.2562 C   0  0  0  0  0  0  0  0  0  0  0  0
  -18.2410  -18.2199   31.3789 C   0  0  0  0  0  0  0  0  0  0  0  0
  -18.4967  -16.9489   30.1413 N   0  0  0  0  0  0  0  0  0  0  0  0
  -19.8868  -15.9087   29.6667 C   0  0  0  0  0  0  0  0  0  0  0  0
  -20.6893  -15.4071   30.6361 N   0  0  0  0  0  0  0  0  0  0  0  0
  -21.9468  -14.9868   30.3385 C   0  0  0  0  0  0  0  0  0  0  0  0
  -22.5034  -15.0375   29.0974 C   0  0  0  0  0  0  0  0  0  0  0  0
  -21.6720  -15.5433   28.1507 C   0  0  0  0  0  0  0  0  0  0  0  0
  -20.4305  -15.9932   28.4259 N   0  0  0  0  0  0  0  0  0  0  0  0
  -19.1999  -18.5430   32.3899 C   0  0  0  0  0  0  0  0  0  0  0  0
  -16.4892  -24.4328   31.8789 N   0  0  0  0  0  0  0  0  0  0  0  0
  -15.1686  -24.9994   31.9262 C   0  0  0  0  0  0  0  0  0  0  0  0
  -14.2215  -24.3476   30.9486 C   0  0  0  0  0  0  0  0  0  0  0  0
  -13.4593  -23.2559   31.3709 C   0  0  0  0  0  0  0  0  0  0  0  0
  -12.5775  -22.6449   30.4818 C   0  0  0  0  0  0  0  0  0  0  0  0
  -12.4804  -23.1851   29.1947 C   0  0  0  0  0  0  0  0  0  0  0  0
  -11.7226  -22.9126   28.0320 C   0  0  0  0  0  0  0  0  0  0  0  0
  -12.0602  -23.8415   27.0711 C   0  0  0  0  0  0  0  0  0  0  0  0
  -13.0252  -24.6513   27.6038 N   0  0  0  0  0  0  0  0  0  0  0  0
  -13.3002  -24.2600   28.8863 C   0  0  0  0  0  0  0  0  0  0  0  0
  -14.1929  -24.8631   29.6881 N   0  0  0  0  0  0  0  0  0  0  0  0
  -19.2365  -24.5476   31.5061 H   0  0  0  0  0  0  0  0  0  0  0  0
  -18.5242  -22.9257   31.6561 H   0  0  0  0  0  0  0  0  0  0  0  0
  -20.1082  -24.3520   33.8596 H   0  0  0  0  0  0  0  0  0  0  0  0
  -19.3714  -22.7808   34.0053 H   0  0  0  0  0  0  0  0  0  0  0  0
  -20.9181  -22.4661   31.6844 H   0  0  0  0  0  0  0  0  0  0  0  0
  -21.8510  -23.6686   32.5805 H   0  0  0  0  0  0  0  0  0  0  0  0
  -22.7647  -21.5907   33.2752 H   0  0  0  0  0  0  0  0  0  0  0  0
  -21.6899  -21.9913   34.6234 H   0  0  0  0  0  0  0  0  0  0  0  0
  -17.6008  -21.2072   33.8249 H   0  0  0  0  0  0  0  0  0  0  0  0
  -15.9780  -20.6985   32.0395 H   0  0  0  0  0  0  0  0  0  0  0  0
  -16.4280  -18.7605   30.5184 H   0  0  0  0  0  0  0  0  0  0  0  0
  -19.3678  -17.0330   30.7578 H   0  0  0  0  0  0  0  0  0  0  0  0
  -22.5199  -14.6041   31.1783 H   0  0  0  0  0  0  0  0  0  0  0  0
  -23.5003  -14.6872   28.8784 H   0  0  0  0  0  0  0  0  0  0  0  0
  -21.9718  -15.6173   27.1087 H   0  0  0  0  0  0  0  0  0  0  0  0
  -20.1436  -18.0140   32.4960 H   0  0  0  0  0  0  0  0  0  0  0  0
  -16.8388  -24.0555   30.9963 H   0  0  0  0  0  0  0  0  0  0  0  0
  -15.2753  -26.0614   31.6835 H   0  0  0  0  0  0  0  0  0  0  0  0
  -14.8028  -24.9182   32.9543 H   0  0  0  0  0  0  0  0  0  0  0  0
  -13.5231  -22.9004   32.3963 H   0  0  0  0  0  0  0  0  0  0  0  0
  -11.9617  -21.8112   30.8010 H   0  0  0  0  0  0  0  0  0  0  0  0
  -11.0060  -22.1156   27.9136 H   0  0  0  0  0  0  0  0  0  0  0  0
  -11.7113  -23.9764   26.0569 H   0  0  0  0  0  0  0  0  0  0  0  0
  -13.4801  -25.4277   27.1487 H   0  0  0  0  0  0  0  0  0  0  0  0
  1  2  2  0
  2  3  1  0
  3  4  1  0
  4  5  1  0
  5  6  1  0
  6  7  1  0
  7  8  1  0
  8  9  2  0
  8 10  1  0
 10 11  2  0
 11 12  1  0
 12 13  2  0
 13 14  1  0
 14 15  1  0
 15 16  1  0
 16 17  2  0
 17 18  1  0
 18 19  2  0
 19 20  1  0
 20 21  2  0
 14 22  2  0
  2 23  1  0
 23 24  1  0
 24 25  1  0
 25 26  2  0
 26 27  1  0
 27 28  2  0
 28 29  1  0
 29 30  2  0
 30 31  1  0
 31 32  1  0
 32 33  2  0
 22 10  1  0
 33 25  1  0
 21 16  1  0
 32 28  1  0
  3 34  1  0
  3 35  1  0
  4 36  1  0
  4 37  1  0
  5 38  1  0
  5 39  1  0
  6 40  1  0
  6 41  1  0
 11 42  1  0
 12 43  1  0
 13 44  1  0
 15 45  1  0
 18 46  1  0
 19 47  1  0
 20 48  1  0
 22 49  1  0
 23 50  1  0
 24 51  1  0
 24 52  1  0
 26 53  1  0
 27 54  1  0
 29 55  1  0
 30 56  1  0
 31 57  1  0
M  END
>  <Energy>  (350) 
122.72018774576375

>  <compound_id>  (350) 
2573

>  <target_id>  (350) 
1

>  <reference_id>  (350) 
173

>  <inspiration_ids>  (350) 
[173, 96]

>  <energy_score>  (350) 
105.4343050661351

>  <distance_score>  (350) 
2.6663953119172064

>  <path>  (350) 
/opt/xchem-fragalysis-2/maxwin/BulkDock/SCRATCH/505736/C2573-P173/C2573-P173.minimised.mol

>  <scratch_subdir>  (350) 
/opt/xchem-fragalysis-2/maxwin/BulkDock/SCRATCH/505736/C2573-P173

>  <fragmenstein_runtime>  (350) 
19.430577516555786

>  <fragmenstein_outcome>  (350) 
too moved

>  <fragmenstein_mode>  (350) 
expansion

>  <fragmenstein_error>  (350) 


$$$$
C2573-P96
     RDKit          3D

 57 60  0  0  0  0  0  0  0  0999 V2000
  -14.4697  -20.7940   34.2094 O   0  0  0  0  0  0  0  0  0  0  0  0
  -15.0927  -21.3205   33.3771 C   0  0  0  0  0  0  0  0  0  0  0  0
  -16.5438  -20.9311   33.0901 C   0  0  0  0  0  0  0  0  0  0  0  0
  -17.5039  -22.0377   33.5487 C   0  0  0  0  0  0  0  0  0  0  0  0
  -18.2999  -22.6634   32.4001 C   0  0  0  0  0  0  0  0  0  0  0  0
  -18.8088  -24.0722   32.7103 C   0  0  0  0  0  0  0  0  0  0  0  0
  -17.7517  -25.0160   32.9753 O   0  0  0  0  0  0  0  0  0  0  0  0
  -17.0396  -25.4635   31.9137 C   0  0  0  0  0  0  0  0  0  0  0  0
  -17.0958  -25.0236   30.7722 O   0  0  0  0  0  0  0  0  0  0  0  0
  -16.1367  -26.5868   32.2798 C   0  0  0  0  0  0  0  0  0  0  0  0
  -15.2237  -27.0361   31.3160 C   0  0  0  0  0  0  0  0  0  0  0  0
  -14.3916  -28.1174   31.5902 C   0  0  0  0  0  0  0  0  0  0  0  0
  -14.4618  -28.7472   32.8324 C   0  0  0  0  0  0  0  0  0  0  0  0
  -15.3433  -28.2974   33.8285 C   0  0  0  0  0  0  0  0  0  0  0  0
  -15.3299  -28.9434   35.0742 N   0  0  0  0  0  0  0  0  0  0  0  0
  -15.5515  -28.4232   36.3525 C   0  0  0  0  0  0  0  0  0  0  0  0
  -16.2275  -27.2812   36.5383 N   0  0  0  0  0  0  0  0  0  0  0  0
  -16.2734  -26.7921   37.7917 C   0  0  0  0  0  0  0  0  0  0  0  0
  -15.7002  -27.4147   38.8699 C   0  0  0  0  0  0  0  0  0  0  0  0
  -15.0644  -28.5958   38.5883 C   0  0  0  0  0  0  0  0  0  0  0  0
  -14.9788  -29.1201   37.3499 N   0  0  0  0  0  0  0  0  0  0  0  0
  -16.1923  -27.2227   33.5275 C   0  0  0  0  0  0  0  0  0  0  0  0
  -14.7402  -22.5211   32.4711 N   0  0  0  0  0  0  0  0  0  0  0  0
  -13.5154  -23.2608   32.3365 C   0  0  0  0  0  0  0  0  0  0  0  0
  -12.8454  -23.1857   30.9854 C   0  0  0  0  0  0  0  0  0  0  0  0
  -12.0867  -22.0524   30.6874 C   0  0  0  0  0  0  0  0  0  0  0  0
  -11.3027  -22.0319   29.5365 C   0  0  0  0  0  0  0  0  0  0  0  0
  -11.2790  -23.1911   28.7542 C   0  0  0  0  0  0  0  0  0  0  0  0
  -10.5750  -23.6191   27.6037 C   0  0  0  0  0  0  0  0  0  0  0  0
  -11.0511  -24.8595   27.2489 C   0  0  0  0  0  0  0  0  0  0  0  0
  -12.0119  -25.2065   28.1582 N   0  0  0  0  0  0  0  0  0  0  0  0
  -12.1356  -24.2245   29.1059 C   0  0  0  0  0  0  0  0  0  0  0  0
  -12.9489  -24.2813   30.1779 N   0  0  0  0  0  0  0  0  0  0  0  0
  -16.7483  -20.0197   33.6665 H   0  0  0  0  0  0  0  0  0  0  0  0
  -16.6631  -20.6564   32.0396 H   0  0  0  0  0  0  0  0  0  0  0  0
  -16.9591  -22.8122   34.1010 H   0  0  0  0  0  0  0  0  0  0  0  0
  -18.2209  -21.6120   34.2624 H   0  0  0  0  0  0  0  0  0  0  0  0
  -19.1514  -22.0154   32.1606 H   0  0  0  0  0  0  0  0  0  0  0  0
  -17.6875  -22.7114   31.5024 H   0  0  0  0  0  0  0  0  0  0  0  0
  -19.4445  -24.0496   33.6020 H   0  0  0  0  0  0  0  0  0  0  0  0
  -19.4275  -24.4470   31.8861 H   0  0  0  0  0  0  0  0  0  0  0  0
  -15.1559  -26.5506   30.3451 H   0  0  0  0  0  0  0  0  0  0  0  0
  -13.6875  -28.4691   30.8411 H   0  0  0  0  0  0  0  0  0  0  0  0
  -13.7986  -29.5869   33.0293 H   0  0  0  0  0  0  0  0  0  0  0  0
  -14.6604  -29.6928   35.1848 H   0  0  0  0  0  0  0  0  0  0  0  0
  -16.7820  -25.8391   37.9014 H   0  0  0  0  0  0  0  0  0  0  0  0
  -15.7311  -26.9888   39.8621 H   0  0  0  0  0  0  0  0  0  0  0  0
  -14.5764  -29.1689   39.3706 H   0  0  0  0  0  0  0  0  0  0  0  0
  -16.9113  -26.8836   34.2685 H   0  0  0  0  0  0  0  0  0  0  0  0
  -15.4879  -22.6679   31.7943 H   0  0  0  0  0  0  0  0  0  0  0  0
  -13.7693  -24.3063   32.5346 H   0  0  0  0  0  0  0  0  0  0  0  0
  -12.8183  -22.9236   33.1107 H   0  0  0  0  0  0  0  0  0  0  0  0
  -12.0660  -21.2071   31.3703 H   0  0  0  0  0  0  0  0  0  0  0  0
  -10.6997  -21.1657   29.2801 H   0  0  0  0  0  0  0  0  0  0  0  0
   -9.8217  -23.0614   27.0722 H   0  0  0  0  0  0  0  0  0  0  0  0
  -10.8018  -25.5099   26.4241 H   0  0  0  0  0  0  0  0  0  0  0  0
  -12.5523  -26.0577   28.1657 H   0  0  0  0  0  0  0  0  0  0  0  0
  1  2  2  0
  2  3  1  0
  3  4  1  0
  4  5  1  0
  5  6  1  0
  6  7  1  0
  7  8  1  0
  8  9  2  0
  8 10  1  0
 10 11  2  0
 11 12  1  0
 12 13  2  0
 13 14  1  0
 14 15  1  0
 15 16  1  0
 16 17  2  0
 17 18  1  0
 18 19  2  0
 19 20  1  0
 20 21  2  0
 14 22  2  0
  2 23  1  0
 23 24  1  0
 24 25  1  0
 25 26  2  0
 26 27  1  0
 27 28  2  0
 28 29  1  0
 29 30  2  0
 30 31  1  0
 31 32  1  0
 32 33  2  0
 22 10  1  0
 33 25  1  0
 21 16  1  0
 32 28  1  0
  3 34  1  0
  3 35  1  0
  4 36  1  0
  4 37  1  0
  5 38  1  0
  5 39  1  0
  6 40  1  0
  6 41  1  0
 11 42  1  0
 12 43  1  0
 13 44  1  0
 15 45  1  0
 18 46  1  0
 19 47  1  0
 20 48  1  0
 22 49  1  0
 23 50  1  0
 24 51  1  0
 24 52  1  0
 26 53  1  0
 27 54  1  0
 29 55  1  0
 30 56  1  0
 31 57  1  0
M  END
>  <Energy>  (351) 
-8.935350548772437

>  <compound_id>  (351) 
2573

>  <target_id>  (351) 
1

>  <reference_id>  (351) 
96

>  <inspiration_ids>  (351) 
[173, 96]

>  <energy_score>  (351) 
-36.76593900100188

>  <distance_score>  (351) 
2.3610600387923126

>  <path>  (351) 
/opt/xchem-fragalysis-2/maxwin/BulkDock/SCRATCH/505736/C2573-P96/C2573-P96.minimised.mol

>  <scratch_subdir>  (351) 
/opt/xchem-fragalysis-2/maxwin/BulkDock/SCRATCH/505736/C2573-P96

>  <fragmenstein_runtime>  (351) 
22.512816429138184

>  <fragmenstein_outcome>  (351) 
too moved

>  <fragmenstein_mode>  (351) 
expansion

>  <fragmenstein_error>  (351) 


$$$$
C2574-P173
     RDKit          3D

 68 71  0  0  0  0  0  0  0  0999 V2000
  -15.7389  -31.6496   28.4990 C   0  0  0  0  0  0  0  0  0  0  0  0
  -14.6187  -30.4362   29.1479 S   0  0  0  0  0  0  0  0  0  0  0  0
  -13.5406  -31.1738   29.7824 O   0  0  0  0  0  0  0  0  0  0  0  0
  -15.4536  -29.3409   29.8470 N   0  0  0  0  0  0  0  0  0  0  0  0
  -14.8413  -28.0877   30.3797 C   0  0  0  0  0  0  0  0  0  0  0  0
  -14.8202  -27.0048   29.2947 C   0  0  0  0  0  0  0  0  0  0  0  0
  -15.0966  -25.5755   29.7401 C   0  0  0  0  0  0  0  0  0  0  0  0
  -14.0430  -24.8270   30.5616 C   0  0  0  0  0  0  0  0  0  0  0  0
  -13.0519  -23.9461   29.7668 C   0  0  0  0  0  0  0  0  0  0  0  0
  -12.7318  -22.5779   30.3488 C   0  0  0  0  0  0  0  0  0  0  0  0
  -12.7388  -21.6180   29.6920 O   0  0  0  0  0  0  0  0  0  0  0  0
  -12.5330  -22.7474   31.8604 N   0  0  0  0  0  0  0  0  0  0  0  0
  -12.3955  -21.7622   32.9028 C   0  0  0  0  0  0  0  0  0  0  0  0
  -13.8558  -21.7526   33.3923 C   0  0  0  0  0  0  0  0  0  0  0  0
  -14.2456  -22.8580   34.1447 C   0  0  0  0  0  0  0  0  0  0  0  0
  -15.4369  -23.5111   33.8532 C   0  0  0  0  0  0  0  0  0  0  0  0
  -16.2501  -22.9397   32.8752 C   0  0  0  0  0  0  0  0  0  0  0  0
  -17.5134  -23.2340   32.3161 C   0  0  0  0  0  0  0  0  0  0  0  0
  -17.8850  -22.1474   31.5500 C   0  0  0  0  0  0  0  0  0  0  0  0
  -16.7693  -21.3531   31.4073 N   0  0  0  0  0  0  0  0  0  0  0  0
  -15.8285  -21.7566   32.3032 C   0  0  0  0  0  0  0  0  0  0  0  0
  -14.7079  -21.0991   32.5742 N   0  0  0  0  0  0  0  0  0  0  0  0
  -13.9193  -29.6884   27.6861 C   0  0  0  0  0  0  0  0  0  0  0  0
  -12.5424  -29.5528   27.6082 C   0  0  0  0  0  0  0  0  0  0  0  0
  -12.0021  -28.5636   26.7835 C   0  0  0  0  0  0  0  0  0  0  0  0
  -12.8042  -27.6741   26.0728 C   0  0  0  0  0  0  0  0  0  0  0  0
  -12.3148  -26.4587   25.5465 N   0  0  0  0  0  0  0  0  0  0  0  0
  -13.3625  -25.3871   25.6024 C   0  0  0  0  0  0  0  0  0  0  0  0
  -12.7997  -23.9566   25.6907 C   0  0  0  0  0  0  0  0  0  0  0  0
  -11.9462  -23.7416   26.8410 N   0  0  0  0  0  0  0  0  0  0  0  0
  -11.1231  -24.9116   27.1036 C   0  0  0  0  0  0  0  0  0  0  0  0
  -10.9785  -25.9183   25.9627 C   0  0  0  0  0  0  0  0  0  0  0  0
  -14.1638  -28.0379   25.9629 C   0  0  0  0  0  0  0  0  0  0  0  0
  -14.7331  -29.0267   26.7755 C   0  0  0  0  0  0  0  0  0  0  0  0
  -15.1897  -32.3145   27.8290 H   0  0  0  0  0  0  0  0  0  0  0  0
  -16.1394  -32.2255   29.3366 H   0  0  0  0  0  0  0  0  0  0  0  0
  -16.5526  -31.1561   27.9649 H   0  0  0  0  0  0  0  0  0  0  0  0
  -15.4652  -27.7596   31.2183 H   0  0  0  0  0  0  0  0  0  0  0  0
  -13.8363  -28.2749   30.7711 H   0  0  0  0  0  0  0  0  0  0  0  0
  -13.8754  -27.0327   28.7523 H   0  0  0  0  0  0  0  0  0  0  0  0
  -15.6097  -27.2251   28.5652 H   0  0  0  0  0  0  0  0  0  0  0  0
  -16.0325  -25.5889   30.3134 H   0  0  0  0  0  0  0  0  0  0  0  0
  -15.2960  -25.0094   28.8266 H   0  0  0  0  0  0  0  0  0  0  0  0
  -13.5173  -25.5170   31.2234 H   0  0  0  0  0  0  0  0  0  0  0  0
  -14.6109  -24.1648   31.2119 H   0  0  0  0  0  0  0  0  0  0  0  0
  -13.4941  -23.7565   28.7869 H   0  0  0  0  0  0  0  0  0  0  0  0
  -12.0868  -24.3967   29.6264 H   0  0  0  0  0  0  0  0  0  0  0  0
  -12.6687  -23.7162   32.1116 H   0  0  0  0  0  0  0  0  0  0  0  0
  -12.0933  -20.8161   32.4759 H   0  0  0  0  0  0  0  0  0  0  0  0
  -11.6829  -22.0183   33.6813 H   0  0  0  0  0  0  0  0  0  0  0  0
  -13.5516  -23.2861   34.8466 H   0  0  0  0  0  0  0  0  0  0  0  0
  -15.7197  -24.4244   34.3635 H   0  0  0  0  0  0  0  0  0  0  0  0
  -18.1416  -24.0831   32.5463 H   0  0  0  0  0  0  0  0  0  0  0  0
  -18.7907  -21.9260   31.0061 H   0  0  0  0  0  0  0  0  0  0  0  0
  -16.6903  -20.5389   30.8151 H   0  0  0  0  0  0  0  0  0  0  0  0
  -11.8887  -30.1090   28.2745 H   0  0  0  0  0  0  0  0  0  0  0  0
  -10.9335  -28.4453   26.8016 H   0  0  0  0  0  0  0  0  0  0  0  0
  -14.0069  -25.5154   26.4843 H   0  0  0  0  0  0  0  0  0  0  0  0
  -13.9984  -25.4593   24.7117 H   0  0  0  0  0  0  0  0  0  0  0  0
  -13.6695  -23.3157   25.7293 H   0  0  0  0  0  0  0  0  0  0  0  0
  -12.2470  -23.6523   24.8022 H   0  0  0  0  0  0  0  0  0  0  0  0
  -11.4173  -22.8756   26.7589 H   0  0  0  0  0  0  0  0  0  0  0  0
  -11.6983  -25.4468   27.8433 H   0  0  0  0  0  0  0  0  0  0  0  0
  -10.1463  -24.6087   27.4876 H   0  0  0  0  0  0  0  0  0  0  0  0
  -10.2507  -26.6925   26.2099 H   0  0  0  0  0  0  0  0  0  0  0  0
  -10.5471  -25.3808   25.1167 H   0  0  0  0  0  0  0  0  0  0  0  0
  -14.8439  -27.4638   25.3380 H   0  0  0  0  0  0  0  0  0  0  0  0
  -15.8146  -29.1334   26.8037 H   0  0  0  0  0  0  0  0  0  0  0  0
  1  2  1  0
  2  3  2  0
  2  4  2  0
  4  5  1  0
  5  6  1  0
  6  7  1  0
  7  8  1  0
  8  9  1  0
  9 10  1  0
 10 11  2  0
 10 12  1  0
 12 13  1  0
 13 14  1  0
 14 15  2  0
 15 16  1  0
 16 17  2  0
 17 18  1  0
 18 19  2  0
 19 20  1  0
 20 21  1  0
 21 22  2  0
  2 23  1  0
 23 24  2  0
 24 25  1  0
 25 26  2  0
 26 27  1  0
 27 28  1  0
 28 29  1  0
 29 30  1  0
 30 31  1  0
 31 32  1  0
 26 33  1  0
 33 34  2  0
 22 14  1  0
 34 23  1  0
 21 17  1  0
 32 27  1  0
  1 35  1  0
  1 36  1  0
  1 37  1  0
  5 38  1  0
  5 39  1  0
  6 40  1  0
  6 41  1  0
  7 42  1  0
  7 43  1  0
  8 44  1  0
  8 45  1  0
  9 46  1  0
  9 47  1  0
 12 48  1  0
 13 49  1  0
 13 50  1  0
 15 51  1  0
 16 52  1  0
 18 53  1  0
 19 54  1  0
 20 55  1  0
 24 56  1  0
 25 57  1  0
 28 58  1  0
 28 59  1  0
 29 60  1  0
 29 61  1  0
 30 62  1  0
 31 63  1  0
 31 64  1  0
 32 65  1  0
 32 66  1  0
 33 67  1  0
 34 68  1  0
M  END
>  <Energy>  (352) 
179.89236889420974

>  <compound_id>  (352) 
2574

>  <target_id>  (352) 
1

>  <reference_id>  (352) 
173

>  <inspiration_ids>  (352) 
[173, 101]

>  <energy_score>  (352) 
-6.6576803565557725

>  <distance_score>  (352) 
3.7188912351026278

>  <path>  (352) 
/opt/xchem-fragalysis-2/maxwin/BulkDock/SCRATCH/505736/C2574-P173/C2574-P173.minimised.mol

>  <scratch_subdir>  (352) 
/opt/xchem-fragalysis-2/maxwin/BulkDock/SCRATCH/505736/C2574-P173

>  <fragmenstein_runtime>  (352) 
26.894627571105957

>  <fragmenstein_outcome>  (352) 
too moved

>  <fragmenstein_mode>  (352) 
expansion

>  <fragmenstein_error>  (352) 


$$$$
C2574-P101
     RDKit          3D

 68 71  0  0  0  0  0  0  0  0999 V2000
  -15.3695  -29.6003   27.8480 C   0  0  0  0  0  0  0  0  0  0  0  0
  -14.2774  -28.9606   26.5940 S   0  0  0  0  0  0  0  0  0  0  0  0
  -14.1745  -30.0065   25.5995 O   0  0  0  0  0  0  0  0  0  0  0  0
  -13.0760  -28.2797   27.3339 N   0  0  0  0  0  0  0  0  0  0  0  0
  -12.0781  -27.4084   26.6317 C   0  0  0  0  0  0  0  0  0  0  0  0
  -11.3916  -26.3444   27.5066 C   0  0  0  0  0  0  0  0  0  0  0  0
  -11.6498  -24.9011   27.0338 C   0  0  0  0  0  0  0  0  0  0  0  0
  -11.1775  -23.8191   28.0174 C   0  0  0  0  0  0  0  0  0  0  0  0
  -11.8680  -23.9557   29.3653 C   0  0  0  0  0  0  0  0  0  0  0  0
  -11.8797  -22.7437   30.2969 C   0  0  0  0  0  0  0  0  0  0  0  0
  -11.6061  -21.6512   29.8983 O   0  0  0  0  0  0  0  0  0  0  0  0
  -12.2873  -23.1907   31.5946 N   0  0  0  0  0  0  0  0  0  0  0  0
  -12.5868  -22.4553   32.7972 C   0  0  0  0  0  0  0  0  0  0  0  0
  -14.0880  -22.3957   32.9864 C   0  0  0  0  0  0  0  0  0  0  0  0
  -14.7443  -23.5536   33.4156 C   0  0  0  0  0  0  0  0  0  0  0  0
  -16.1350  -23.6070   33.4013 C   0  0  0  0  0  0  0  0  0  0  0  0
  -16.8147  -22.4665   32.9605 C   0  0  0  0  0  0  0  0  0  0  0  0
  -18.1741  -22.1095   32.7643 C   0  0  0  0  0  0  0  0  0  0  0  0
  -18.2070  -20.7950   32.3476 C   0  0  0  0  0  0  0  0  0  0  0  0
  -16.9113  -20.3535   32.2632 N   0  0  0  0  0  0  0  0  0  0  0  0
  -16.0542  -21.3601   32.6075 C   0  0  0  0  0  0  0  0  0  0  0  0
  -14.7181  -21.2529   32.5996 N   0  0  0  0  0  0  0  0  0  0  0  0
  -15.2682  -27.6569   25.8813 C   0  0  0  0  0  0  0  0  0  0  0  0
  -14.9892  -26.3485   26.2255 C   0  0  0  0  0  0  0  0  0  0  0  0
  -15.5800  -25.2870   25.5755 C   0  0  0  0  0  0  0  0  0  0  0  0
  -16.5245  -25.4726   24.5759 C   0  0  0  0  0  0  0  0  0  0  0  0
  -16.9831  -24.3670   23.8563 N   0  0  0  0  0  0  0  0  0  0  0  0
  -18.1542  -24.5549   22.9797 C   0  0  0  0  0  0  0  0  0  0  0  0
  -18.3781  -23.3433   22.0527 C   0  0  0  0  0  0  0  0  0  0  0  0
  -18.4755  -22.0627   22.7668 N   0  0  0  0  0  0  0  0  0  0  0  0
  -17.2339  -21.8733   23.5326 C   0  0  0  0  0  0  0  0  0  0  0  0
  -16.9270  -23.0266   24.5019 C   0  0  0  0  0  0  0  0  0  0  0  0
  -16.8469  -26.8128   24.2721 C   0  0  0  0  0  0  0  0  0  0  0  0
  -16.2246  -27.9033   24.9105 C   0  0  0  0  0  0  0  0  0  0  0  0
  -15.7058  -28.7959   28.5025 H   0  0  0  0  0  0  0  0  0  0  0  0
  -16.2292  -30.0645   27.3589 H   0  0  0  0  0  0  0  0  0  0  0  0
  -14.8261  -30.3549   28.4213 H   0  0  0  0  0  0  0  0  0  0  0  0
  -11.2651  -28.0459   26.3312 H   0  0  0  0  0  0  0  0  0  0  0  0
  -12.4878  -26.9559   25.7251 H   0  0  0  0  0  0  0  0  0  0  0  0
  -10.3056  -26.4939   27.4440 H   0  0  0  0  0  0  0  0  0  0  0  0
  -11.6226  -26.4877   28.5579 H   0  0  0  0  0  0  0  0  0  0  0  0
  -12.7118  -24.7347   26.8483 H   0  0  0  0  0  0  0  0  0  0  0  0
  -11.1463  -24.7466   26.0717 H   0  0  0  0  0  0  0  0  0  0  0  0
  -11.3925  -22.8359   27.5879 H   0  0  0  0  0  0  0  0  0  0  0  0
  -10.0927  -23.8898   28.1416 H   0  0  0  0  0  0  0  0  0  0  0  0
  -11.4035  -24.7900   29.9013 H   0  0  0  0  0  0  0  0  0  0  0  0
  -12.9213  -24.1703   29.1651 H   0  0  0  0  0  0  0  0  0  0  0  0
  -12.5203  -24.1893   31.5468 H   0  0  0  0  0  0  0  0  0  0  0  0
  -12.1142  -22.9668   33.6406 H   0  0  0  0  0  0  0  0  0  0  0  0
  -12.1688  -21.4481   32.7133 H   0  0  0  0  0  0  0  0  0  0  0  0
  -14.1764  -24.4331   33.7105 H   0  0  0  0  0  0  0  0  0  0  0  0
  -16.6578  -24.5087   33.6992 H   0  0  0  0  0  0  0  0  0  0  0  0
  -19.0371  -22.7359   32.9463 H   0  0  0  0  0  0  0  0  0  0  0  0
  -19.0343  -20.1323   32.1281 H   0  0  0  0  0  0  0  0  0  0  0  0
  -16.6172  -19.4157   32.0378 H   0  0  0  0  0  0  0  0  0  0  0  0
  -14.2393  -26.1010   26.9505 H   0  0  0  0  0  0  0  0  0  0  0  0
  -15.2089  -24.3085   25.8432 H   0  0  0  0  0  0  0  0  0  0  0  0
  -19.0495  -24.7223   23.5918 H   0  0  0  0  0  0  0  0  0  0  0  0
  -18.0221  -25.4171   22.3175 H   0  0  0  0  0  0  0  0  0  0  0  0
  -19.3069  -23.4983   21.4922 H   0  0  0  0  0  0  0  0  0  0  0  0
  -17.5710  -23.2874   21.3118 H   0  0  0  0  0  0  0  0  0  0  0  0
  -18.5589  -21.3069   22.0876 H   0  0  0  0  0  0  0  0  0  0  0  0
  -17.3101  -20.9388   24.0980 H   0  0  0  0  0  0  0  0  0  0  0  0
  -16.3962  -21.7522   22.8335 H   0  0  0  0  0  0  0  0  0  0  0  0
  -17.6318  -23.0020   25.3417 H   0  0  0  0  0  0  0  0  0  0  0  0
  -15.9187  -22.8065   24.8580 H   0  0  0  0  0  0  0  0  0  0  0  0
  -17.5619  -27.0533   23.4909 H   0  0  0  0  0  0  0  0  0  0  0  0
  -16.4658  -28.9186   24.6066 H   0  0  0  0  0  0  0  0  0  0  0  0
  1  2  1  0
  2  3  2  0
  2  4  2  0
  4  5  1  0
  5  6  1  0
  6  7  1  0
  7  8  1  0
  8  9  1  0
  9 10  1  0
 10 11  2  0
 10 12  1  0
 12 13  1  0
 13 14  1  0
 14 15  2  0
 15 16  1  0
 16 17  2  0
 17 18  1  0
 18 19  2  0
 19 20  1  0
 20 21  1  0
 21 22  2  0
  2 23  1  0
 23 24  2  0
 24 25  1  0
 25 26  2  0
 26 27  1  0
 27 28  1  0
 28 29  1  0
 29 30  1  0
 30 31  1  0
 31 32  1  0
 26 33  1  0
 33 34  2  0
 22 14  1  0
 34 23  1  0
 21 17  1  0
 32 27  1  0
  1 35  1  0
  1 36  1  0
  1 37  1  0
  5 38  1  0
  5 39  1  0
  6 40  1  0
  6 41  1  0
  7 42  1  0
  7 43  1  0
  8 44  1  0
  8 45  1  0
  9 46  1  0
  9 47  1  0
 12 48  1  0
 13 49  1  0
 13 50  1  0
 15 51  1  0
 16 52  1  0
 18 53  1  0
 19 54  1  0
 20 55  1  0
 24 56  1  0
 25 57  1  0
 28 58  1  0
 28 59  1  0
 29 60  1  0
 29 61  1  0
 30 62  1  0
 31 63  1  0
 31 64  1  0
 32 65  1  0
 32 66  1  0
 33 67  1  0
 34 68  1  0
M  END
>  <Energy>  (353) 
128.44338290221472

>  <compound_id>  (353) 
2574

>  <target_id>  (353) 
1

>  <reference_id>  (353) 
101

>  <inspiration_ids>  (353) 
[173, 101]

>  <energy_score>  (353) 
-42.30878843549763

>  <distance_score>  (353) 
6.5437194386459305

>  <path>  (353) 
/opt/xchem-fragalysis-2/maxwin/BulkDock/SCRATCH/505736/C2574-P101/C2574-P101.minimised.mol

>  <scratch_subdir>  (353) 
/opt/xchem-fragalysis-2/maxwin/BulkDock/SCRATCH/505736/C2574-P101

>  <fragmenstein_runtime>  (353) 
38.20511531829834

>  <fragmenstein_outcome>  (353) 
too moved

>  <fragmenstein_mode>  (353) 
expansion

>  <fragmenstein_error>  (353) 


$$$$
C2578-P173
     RDKit          3D

 42 43  0  0  0  0  0  0  0  0999 V2000
  -14.3395  -25.8157   30.4069 C   0  0  0  0  0  0  0  0  0  0  0  0
  -14.0280  -24.4202   31.0139 C   0  0  0  0  0  0  0  0  0  0  0  0
  -15.2130  -24.1735   31.9972 C   0  0  0  0  0  0  0  0  0  0  0  0
  -15.3607  -22.9922   32.9692 C   0  0  0  0  0  0  0  0  0  0  0  0
  -15.9227  -21.7132   32.3477 C   0  0  0  0  0  0  0  0  0  0  0  0
  -16.7910  -20.8164   33.2159 C   0  0  0  0  0  0  0  0  0  0  0  0
  -18.0197  -21.4841   33.7900 C   0  0  0  0  0  0  0  0  0  0  0  0
  -18.8362  -22.2482   32.7636 C   0  0  0  0  0  0  0  0  0  0  0  0
  -19.0718  -21.7954   31.6409 O   0  0  0  0  0  0  0  0  0  0  0  0
  -19.3508  -23.5987   33.1911 C   0  0  0  0  0  0  0  0  0  0  0  0
  -20.3635  -23.3945   34.6312 Cl  0  0  0  0  0  0  0  0  0  0  0  0
  -13.7328  -23.5013   29.8269 C   0  0  0  0  0  0  0  0  0  0  0  0
  -13.4238  -22.0843   30.2892 C   0  0  0  0  0  0  0  0  0  0  0  0
  -12.5856  -22.0228   31.4570 C   0  0  0  0  0  0  0  0  0  0  0  0
  -12.4368  -21.2832   32.6527 C   0  0  0  0  0  0  0  0  0  0  0  0
  -11.2738  -21.6675   33.2278 C   0  0  0  0  0  0  0  0  0  0  0  0
  -11.0043  -22.8164   32.5503 N   0  0  0  0  0  0  0  0  0  0  0  0
  -12.1351  -23.2026   31.8815 C   0  0  0  0  0  0  0  0  0  0  0  0
  -12.7603  -24.4103   31.7461 N   0  0  0  0  0  0  0  0  0  0  0  0
  -13.9290  -26.6342   30.9998 H   0  0  0  0  0  0  0  0  0  0  0  0
  -15.4197  -25.9865   30.3178 H   0  0  0  0  0  0  0  0  0  0  0  0
  -13.9735  -25.9159   29.3802 H   0  0  0  0  0  0  0  0  0  0  0  0
  -15.2265  -25.0524   32.6610 H   0  0  0  0  0  0  0  0  0  0  0  0
  -16.1573  -24.2502   31.4476 H   0  0  0  0  0  0  0  0  0  0  0  0
  -16.0635  -23.3346   33.7377 H   0  0  0  0  0  0  0  0  0  0  0  0
  -14.4394  -22.8053   33.5235 H   0  0  0  0  0  0  0  0  0  0  0  0
  -16.4500  -21.9261   31.4164 H   0  0  0  0  0  0  0  0  0  0  0  0
  -15.0995  -21.0552   32.1182 H   0  0  0  0  0  0  0  0  0  0  0  0
  -17.1011  -19.9522   32.6138 H   0  0  0  0  0  0  0  0  0  0  0  0
  -16.1903  -20.4137   34.0412 H   0  0  0  0  0  0  0  0  0  0  0  0
  -18.6755  -20.7348   34.2479 H   0  0  0  0  0  0  0  0  0  0  0  0
  -17.7153  -22.1657   34.5914 H   0  0  0  0  0  0  0  0  0  0  0  0
  -19.9597  -24.0366   32.3959 H   0  0  0  0  0  0  0  0  0  0  0  0
  -18.5151  -24.2652   33.4187 H   0  0  0  0  0  0  0  0  0  0  0  0
  -12.8533  -23.8718   29.2750 H   0  0  0  0  0  0  0  0  0  0  0  0
  -14.5364  -23.5575   29.1074 H   0  0  0  0  0  0  0  0  0  0  0  0
  -12.9270  -21.5263   29.4868 H   0  0  0  0  0  0  0  0  0  0  0  0
  -14.3821  -21.6669   30.5348 H   0  0  0  0  0  0  0  0  0  0  0  0
  -13.0695  -20.5874   33.1568 H   0  0  0  0  0  0  0  0  0  0  0  0
  -10.7338  -21.3668   34.1129 H   0  0  0  0  0  0  0  0  0  0  0  0
  -10.4532  -23.4850   33.0213 H   0  0  0  0  0  0  0  0  0  0  0  0
  -12.8125  -24.9648   32.6021 H   0  0  0  0  0  0  0  0  0  0  0  0
  1  2  1  0
  2  3  1  0
  3  4  1  0
  4  5  1  0
  5  6  1  0
  6  7  1  0
  7  8  1  0
  8  9  2  0
  8 10  1  0
 10 11  1  0
  2 12  1  0
 12 13  1  0
 13 14  1  0
 14 15  1  0
 15 16  2  0
 16 17  1  0
 17 18  1  0
 18 19  1  0
 19  2  1  0
 18 14  2  0
  1 20  1  0
  1 21  1  0
  1 22  1  0
  3 23  1  0
  3 24  1  0
  4 25  1  0
  4 26  1  0
  5 27  1  0
  5 28  1  0
  6 29  1  0
  6 30  1  0
  7 31  1  0
  7 32  1  0
 10 33  1  0
 10 34  1  0
 12 35  1  0
 12 36  1  0
 13 37  1  0
 13 38  1  0
 15 39  1  0
 16 40  1  0
 17 41  1  0
 19 42  1  0
M  END
>  <Energy>  (354) 
97.505917104647651

>  <compound_id>  (354) 
2578

>  <target_id>  (354) 
1

>  <reference_id>  (354) 
173

>  <inspiration_ids>  (354) 
[173, 119]

>  <energy_score>  (354) 
39.54751579859473

>  <distance_score>  (354) 
2.4197569256569946

>  <path>  (354) 
/opt/xchem-fragalysis-2/maxwin/BulkDock/SCRATCH/505736/C2578-P173/C2578-P173.minimised.mol

>  <scratch_subdir>  (354) 
/opt/xchem-fragalysis-2/maxwin/BulkDock/SCRATCH/505736/C2578-P173

>  <fragmenstein_runtime>  (354) 
3.5471651554107666

>  <fragmenstein_outcome>  (354) 
too moved

>  <fragmenstein_mode>  (354) 
expansion

>  <fragmenstein_error>  (354) 


$$$$
C2578-P119
     RDKit          3D

 42 43  0  0  0  0  0  0  0  0999 V2000
  -12.4897  -21.9546   34.0112 C   0  0  0  0  0  0  0  0  0  0  0  0
  -12.4714  -21.3847   32.5741 C   0  0  0  0  0  0  0  0  0  0  0  0
  -13.8091  -20.7229   32.2029 C   0  0  0  0  0  0  0  0  0  0  0  0
  -15.0328  -20.8523   33.1138 C   0  0  0  0  0  0  0  0  0  0  0  0
  -15.6008  -22.2271   33.4076 C   0  0  0  0  0  0  0  0  0  0  0  0
  -16.8643  -22.6719   32.7223 C   0  0  0  0  0  0  0  0  0  0  0  0
  -17.9920  -21.6673   32.6992 C   0  0  0  0  0  0  0  0  0  0  0  0
  -19.2208  -22.4107   32.2316 C   0  0  0  0  0  0  0  0  0  0  0  0
  -19.5569  -22.3666   31.0409 O   0  0  0  0  0  0  0  0  0  0  0  0
  -19.9119  -23.3535   33.1937 C   0  0  0  0  0  0  0  0  0  0  0  0
  -20.1899  -22.5958   34.7665 Cl  0  0  0  0  0  0  0  0  0  0  0  0
  -11.2659  -20.4029   32.5412 C   0  0  0  0  0  0  0  0  0  0  0  0
   -9.9970  -21.2055   32.9300 C   0  0  0  0  0  0  0  0  0  0  0  0
   -9.8682  -22.4198   32.1137 C   0  0  0  0  0  0  0  0  0  0  0  0
   -8.8439  -23.3607   31.9384 C   0  0  0  0  0  0  0  0  0  0  0  0
   -9.3245  -24.3064   31.0550 C   0  0  0  0  0  0  0  0  0  0  0  0
  -10.6089  -23.9755   30.7172 N   0  0  0  0  0  0  0  0  0  0  0  0
  -10.9472  -22.8702   31.4215 C   0  0  0  0  0  0  0  0  0  0  0  0
  -12.1681  -22.3231   31.4833 N   0  0  0  0  0  0  0  0  0  0  0  0
  -11.7120  -22.6988   34.1916 H   0  0  0  0  0  0  0  0  0  0  0  0
  -13.3995  -22.4370   34.3436 H   0  0  0  0  0  0  0  0  0  0  0  0
  -12.3487  -21.1337   34.7224 H   0  0  0  0  0  0  0  0  0  0  0  0
  -13.6274  -19.6445   32.1666 H   0  0  0  0  0  0  0  0  0  0  0  0
  -14.0893  -20.9839   31.1858 H   0  0  0  0  0  0  0  0  0  0  0  0
  -14.7605  -20.3937   34.0753 H   0  0  0  0  0  0  0  0  0  0  0  0
  -15.8114  -20.1916   32.7179 H   0  0  0  0  0  0  0  0  0  0  0  0
  -14.8796  -23.0116   33.2289 H   0  0  0  0  0  0  0  0  0  0  0  0
  -15.8066  -22.2595   34.4873 H   0  0  0  0  0  0  0  0  0  0  0  0
  -17.1907  -23.5711   33.2628 H   0  0  0  0  0  0  0  0  0  0  0  0
  -16.6596  -23.0545   31.7211 H   0  0  0  0  0  0  0  0  0  0  0  0
  -17.8050  -20.8503   31.9953 H   0  0  0  0  0  0  0  0  0  0  0  0
  -18.1580  -21.2075   33.6758 H   0  0  0  0  0  0  0  0  0  0  0  0
  -20.8888  -23.6254   32.7839 H   0  0  0  0  0  0  0  0  0  0  0  0
  -19.3206  -24.2619   33.3282 H   0  0  0  0  0  0  0  0  0  0  0  0
  -11.4149  -19.5738   33.2424 H   0  0  0  0  0  0  0  0  0  0  0  0
  -11.1415  -19.9638   31.5419 H   0  0  0  0  0  0  0  0  0  0  0  0
   -9.1066  -20.6026   32.8754 H   0  0  0  0  0  0  0  0  0  0  0  0
  -10.0644  -21.5303   33.9658 H   0  0  0  0  0  0  0  0  0  0  0  0
   -7.8687  -23.3674   32.4062 H   0  0  0  0  0  0  0  0  0  0  0  0
   -8.8704  -25.1957   30.6584 H   0  0  0  0  0  0  0  0  0  0  0  0
  -11.2440  -24.5111   30.1452 H   0  0  0  0  0  0  0  0  0  0  0  0
  -12.9934  -22.8417   31.1731 H   0  0  0  0  0  0  0  0  0  0  0  0
  1  2  1  0
  2  3  1  0
  3  4  1  0
  4  5  1  0
  5  6  1  0
  6  7  1  0
  7  8  1  0
  8  9  2  0
  8 10  1  0
 10 11  1  0
  2 12  1  0
 12 13  1  0
 13 14  1  0
 14 15  1  0
 15 16  2  0
 16 17  1  0
 17 18  1  0
 18 19  1  0
 19  2  1  0
 18 14  2  0
  1 20  1  0
  1 21  1  0
  1 22  1  0
  3 23  1  0
  3 24  1  0
  4 25  1  0
  4 26  1  0
  5 27  1  0
  5 28  1  0
  6 29  1  0
  6 30  1  0
  7 31  1  0
  7 32  1  0
 10 33  1  0
 10 34  1  0
 12 35  1  0
 12 36  1  0
 13 37  1  0
 13 38  1  0
 15 39  1  0
 16 40  1  0
 17 41  1  0
 19 42  1  0
M  END
>  <Energy>  (355) 
56.02767477445876

>  <compound_id>  (355) 
2578

>  <target_id>  (355) 
1

>  <reference_id>  (355) 
119

>  <inspiration_ids>  (355) 
[173, 119]

>  <energy_score>  (355) 
-1.930726531593077

>  <distance_score>  (355) 
2.62497193733815

>  <path>  (355) 
/opt/xchem-fragalysis-2/maxwin/BulkDock/SCRATCH/505736/C2578-P119/C2578-P119.minimised.mol

>  <scratch_subdir>  (355) 
/opt/xchem-fragalysis-2/maxwin/BulkDock/SCRATCH/505736/C2578-P119

>  <fragmenstein_runtime>  (355) 
5.427112817764282

>  <fragmenstein_outcome>  (355) 
too moved

>  <fragmenstein_mode>  (355) 
expansion

>  <fragmenstein_error>  (355) 


$$$$
C2580-P173
     RDKit          3D

 65 69  0  0  0  0  0  0  0  0999 V2000
  -19.1131  -20.8809   32.6732 C   0  0  0  0  0  0  0  0  0  0  0  0
  -17.9685  -21.8340   32.3902 C   0  0  0  0  0  0  0  0  0  0  0  0
  -16.4617  -20.9200   32.1442 S   0  0  0  0  0  0  0  0  0  0  0  0
  -16.1054  -20.2899   33.3922 O   0  0  0  0  0  0  0  0  0  0  0  0
  -16.6726  -20.1130   30.9592 O   0  0  0  0  0  0  0  0  0  0  0  0
  -15.3375  -22.0501   31.7031 N   0  0  0  0  0  0  0  0  0  0  0  0
  -14.4245  -22.8012   32.6098 C   0  0  0  0  0  0  0  0  0  0  0  0
  -15.1053  -24.1204   33.1101 C   0  0  0  0  0  0  0  0  0  0  0  0
  -15.9666  -23.9223   34.2847 N   0  0  0  0  0  0  0  0  0  0  0  0
  -16.9377  -24.9613   34.6784 C   0  0  0  0  0  0  0  0  0  0  0  0
  -17.9323  -25.7222   33.3828 S   0  0  0  0  0  0  0  0  0  0  0  0
  -16.0523  -26.1715   35.6196 Cl  0  0  0  0  0  0  0  0  0  0  0  0
  -17.9778  -24.2951   35.7012 C   0  0  0  0  0  0  0  0  0  0  0  0
  -18.8020  -24.9107   36.2676 O   0  0  0  0  0  0  0  0  0  0  0  0
  -17.6588  -22.7576   35.7288 N   0  0  0  0  0  0  0  0  0  0  0  0
  -18.2300  -21.6911   36.5319 C   0  0  0  0  0  0  0  0  0  0  0  0
  -17.2036  -20.5433   36.8498 C   0  0  0  0  0  0  0  0  0  0  0  0
  -16.9198  -20.1834   38.0870 N   0  0  0  0  0  0  0  0  0  0  0  0
  -16.2798  -18.9706   38.0460 N   0  0  0  0  0  0  0  0  0  0  0  0
  -16.1263  -18.6428   36.7816 C   0  0  0  0  0  0  0  0  0  0  0  0
  -15.5443  -17.4320   36.3059 C   0  0  0  0  0  0  0  0  0  0  0  0
  -15.7062  -16.1708   36.8427 C   0  0  0  0  0  0  0  0  0  0  0  0
  -15.0003  -15.1741   36.1067 C   0  0  0  0  0  0  0  0  0  0  0  0
  -14.2829  -15.7165   35.0639 C   0  0  0  0  0  0  0  0  0  0  0  0
  -14.4958  -17.4066   34.9621 S   0  0  0  0  0  0  0  0  0  0  0  0
  -16.6503  -19.6334   35.9935 N   0  0  0  0  0  0  0  0  0  0  0  0
  -19.5926  -21.1683   36.0012 C   0  0  0  0  0  0  0  0  0  0  0  0
  -20.0866  -21.1392   37.4491 C   0  0  0  0  0  0  0  0  0  0  0  0
  -19.0007  -22.1710   37.7856 C   0  0  0  0  0  0  0  0  0  0  0  0
  -13.5956  -21.9645   33.5937 C   0  0  0  0  0  0  0  0  0  0  0  0
  -12.3192  -21.4983   33.1908 C   0  0  0  0  0  0  0  0  0  0  0  0
  -11.4991  -20.7392   34.0430 C   0  0  0  0  0  0  0  0  0  0  0  0
  -11.9562  -20.4260   35.2914 C   0  0  0  0  0  0  0  0  0  0  0  0
  -13.1802  -20.8565   35.7064 C   0  0  0  0  0  0  0  0  0  0  0  0
  -14.0044  -21.6169   34.8938 C   0  0  0  0  0  0  0  0  0  0  0  0
  -13.4608  -20.4457   36.9725 O   0  0  0  0  0  0  0  0  0  0  0  0
  -12.3425  -19.5611   37.2173 C   0  0  0  0  0  0  0  0  0  0  0  0
  -11.3071  -19.6875   36.2265 O   0  0  0  0  0  0  0  0  0  0  0  0
  -20.0133  -21.4341   32.9545 H   0  0  0  0  0  0  0  0  0  0  0  0
  -18.8612  -20.1716   33.4639 H   0  0  0  0  0  0  0  0  0  0  0  0
  -19.3512  -20.2923   31.7821 H   0  0  0  0  0  0  0  0  0  0  0  0
  -18.1729  -22.4083   31.4836 H   0  0  0  0  0  0  0  0  0  0  0  0
  -17.8346  -22.5134   33.2197 H   0  0  0  0  0  0  0  0  0  0  0  0
  -15.6274  -22.5949   30.8792 H   0  0  0  0  0  0  0  0  0  0  0  0
  -13.6727  -23.1908   31.9033 H   0  0  0  0  0  0  0  0  0  0  0  0
  -14.3160  -24.8237   33.3697 H   0  0  0  0  0  0  0  0  0  0  0  0
  -15.6642  -24.5488   32.2723 H   0  0  0  0  0  0  0  0  0  0  0  0
  -15.3203  -23.9101   35.0826 H   0  0  0  0  0  0  0  0  0  0  0  0
  -18.6566  -26.4739   34.2270 H   0  0  0  0  0  0  0  0  0  0  0  0
  -16.8236  -22.5741   35.1809 H   0  0  0  0  0  0  0  0  0  0  0  0
  -16.3222  -15.9735   37.7119 H   0  0  0  0  0  0  0  0  0  0  0  0
  -15.0044  -14.1180   36.3408 H   0  0  0  0  0  0  0  0  0  0  0  0
  -13.6408  -15.2114   34.3517 H   0  0  0  0  0  0  0  0  0  0  0  0
  -16.6572  -19.6383   34.9802 H   0  0  0  0  0  0  0  0  0  0  0  0
  -20.1415  -21.8797   35.3730 H   0  0  0  0  0  0  0  0  0  0  0  0
  -19.6009  -20.1885   35.5180 H   0  0  0  0  0  0  0  0  0  0  0  0
  -19.9500  -20.1718   37.9465 H   0  0  0  0  0  0  0  0  0  0  0  0
  -21.1175  -21.4685   37.6041 H   0  0  0  0  0  0  0  0  0  0  0  0
  -18.5197  -22.0375   38.7595 H   0  0  0  0  0  0  0  0  0  0  0  0
  -19.3965  -23.1898   37.7668 H   0  0  0  0  0  0  0  0  0  0  0  0
  -11.9294  -21.7399   32.2042 H   0  0  0  0  0  0  0  0  0  0  0  0
  -10.5271  -20.3835   33.7399 H   0  0  0  0  0  0  0  0  0  0  0  0
  -14.9631  -21.8787   35.2972 H   0  0  0  0  0  0  0  0  0  0  0  0
  -12.6978  -18.5247   37.2372 H   0  0  0  0  0  0  0  0  0  0  0  0
  -11.9156  -19.7843   38.1990 H   0  0  0  0  0  0  0  0  0  0  0  0
  1  2  1  0
  2  3  1  0
  3  4  2  0
  3  5  2  0
  3  6  1  0
  6  7  1  0
  7  8  1  0
  8  9  1  0
  9 10  1  0
 10 11  1  0
 10 12  1  0
 10 13  1  0
 13 14  2  0
 13 15  1  0
 15 16  1  0
 16 17  1  0
 17 18  2  0
 18 19  1  0
 19 20  2  0
 20 21  1  0
 21 22  2  0
 22 23  1  0
 23 24  2  0
 24 25  1  0
 20 26  1  0
 16 27  1  0
 27 28  1  0
 28 29  1  0
  7 30  1  0
 30 31  2  0
 31 32  1  0
 32 33  2  0
 33 34  1  0
 34 35  2  0
 34 36  1  0
 36 37  1  0
 37 38  1  0
 29 16  1  0
 35 30  1  0
 26 17  1  0
 38 33  1  0
 25 21  1  0
  1 39  1  0
  1 40  1  0
  1 41  1  0
  2 42  1  0
  2 43  1  0
  6 44  1  0
  7 45  1  0
  8 46  1  0
  8 47  1  0
  9 48  1  0
 11 49  1  0
 15 50  1  0
 22 51  1  0
 23 52  1  0
 24 53  1  0
 26 54  1  0
 27 55  1  0
 27 56  1  0
 28 57  1  0
 28 58  1  0
 29 59  1  0
 29 60  1  0
 31 61  1  0
 32 62  1  0
 35 63  1  0
 37 64  1  0
 37 65  1  0
M  END
>  <Energy>  (356) 
40.447387091145309

>  <compound_id>  (356) 
2580

>  <target_id>  (356) 
1

>  <reference_id>  (356) 
173

>  <inspiration_ids>  (356) 
[173, 161]

>  <energy_score>  (356) 
-67.80494365108137

>  <distance_score>  (356) 
2.977307568849427

>  <path>  (356) 
/opt/xchem-fragalysis-2/maxwin/BulkDock/SCRATCH/505736/C2580-P173/C2580-P173.minimised.mol

>  <scratch_subdir>  (356) 
/opt/xchem-fragalysis-2/maxwin/BulkDock/SCRATCH/505736/C2580-P173

>  <fragmenstein_runtime>  (356) 
18.70307230949402

>  <fragmenstein_outcome>  (356) 
too moved

>  <fragmenstein_mode>  (356) 
expansion

>  <fragmenstein_error>  (356) 


$$$$
C2580-P161
     RDKit          3D

 65 69  0  0  0  0  0  0  0  0999 V2000
  -19.5394  -19.8754   33.4962 C   0  0  0  0  0  0  0  0  0  0  0  0
  -18.3712  -20.7544   33.8572 C   0  0  0  0  0  0  0  0  0  0  0  0
  -17.1044  -20.8381   32.5812 S   0  0  0  0  0  0  0  0  0  0  0  0
  -16.0534  -19.8920   32.8733 O   0  0  0  0  0  0  0  0  0  0  0  0
  -17.6764  -20.8688   31.2527 O   0  0  0  0  0  0  0  0  0  0  0  0
  -16.4661  -22.3787   32.8163 N   0  0  0  0  0  0  0  0  0  0  0  0
  -16.0491  -22.7823   34.1738 C   0  0  0  0  0  0  0  0  0  0  0  0
  -15.4704  -24.2172   34.1451 C   0  0  0  0  0  0  0  0  0  0  0  0
  -16.3062  -25.3783   33.7786 N   0  0  0  0  0  0  0  0  0  0  0  0
  -17.4525  -25.6585   34.6626 C   0  0  0  0  0  0  0  0  0  0  0  0
  -17.2639  -25.3957   36.4306 S   0  0  0  0  0  0  0  0  0  0  0  0
  -17.7075  -27.4348   34.4036 Cl  0  0  0  0  0  0  0  0  0  0  0  0
  -18.7555  -24.9762   34.0751 C   0  0  0  0  0  0  0  0  0  0  0  0
  -19.5914  -24.4762   34.7753 O   0  0  0  0  0  0  0  0  0  0  0  0
  -18.7251  -25.1853   32.6427 N   0  0  0  0  0  0  0  0  0  0  0  0
  -19.6505  -24.7715   31.5972 C   0  0  0  0  0  0  0  0  0  0  0  0
  -19.1761  -25.3202   30.2041 C   0  0  0  0  0  0  0  0  0  0  0  0
  -19.9190  -25.3460   29.1186 N   0  0  0  0  0  0  0  0  0  0  0  0
  -19.1744  -25.9166   28.1114 N   0  0  0  0  0  0  0  0  0  0  0  0
  -17.9742  -26.1895   28.5842 C   0  0  0  0  0  0  0  0  0  0  0  0
  -16.8577  -26.7145   27.8558 C   0  0  0  0  0  0  0  0  0  0  0  0
  -15.5483  -26.8473   28.2853 C   0  0  0  0  0  0  0  0  0  0  0  0
  -14.6939  -27.3955   27.2823 C   0  0  0  0  0  0  0  0  0  0  0  0
  -15.3763  -27.6661   26.1189 C   0  0  0  0  0  0  0  0  0  0  0  0
  -17.0319  -27.2605   26.2387 S   0  0  0  0  0  0  0  0  0  0  0  0
  -17.9339  -25.8086   29.8974 N   0  0  0  0  0  0  0  0  0  0  0  0
  -21.1443  -25.0615   31.9090 C   0  0  0  0  0  0  0  0  0  0  0  0
  -21.4817  -23.6433   31.4149 C   0  0  0  0  0  0  0  0  0  0  0  0
  -20.0033  -23.2687   31.5933 C   0  0  0  0  0  0  0  0  0  0  0  0
  -15.0644  -21.8660   34.8823 C   0  0  0  0  0  0  0  0  0  0  0  0
  -15.3838  -21.3702   36.1732 C   0  0  0  0  0  0  0  0  0  0  0  0
  -14.5084  -20.5285   36.8660 C   0  0  0  0  0  0  0  0  0  0  0  0
  -13.3260  -20.1903   36.2500 C   0  0  0  0  0  0  0  0  0  0  0  0
  -12.9970  -20.6730   35.0075 C   0  0  0  0  0  0  0  0  0  0  0  0
  -13.8304  -21.5207   34.3062 C   0  0  0  0  0  0  0  0  0  0  0  0
  -11.7913  -20.2164   34.5804 O   0  0  0  0  0  0  0  0  0  0  0  0
  -11.4477  -19.3095   35.6476 C   0  0  0  0  0  0  0  0  0  0  0  0
  -12.3676  -19.3747   36.7632 O   0  0  0  0  0  0  0  0  0  0  0  0
  -20.0843  -20.2787   32.6384 H   0  0  0  0  0  0  0  0  0  0  0  0
  -20.2402  -19.8102   34.3342 H   0  0  0  0  0  0  0  0  0  0  0  0
  -19.2090  -18.8675   33.2523 H   0  0  0  0  0  0  0  0  0  0  0  0
  -18.7378  -21.7638   34.0463 H   0  0  0  0  0  0  0  0  0  0  0  0
  -17.8873  -20.3888   34.7672 H   0  0  0  0  0  0  0  0  0  0  0  0
  -15.7968  -22.6029   32.0778 H   0  0  0  0  0  0  0  0  0  0  0  0
  -16.9571  -22.8230   34.7834 H   0  0  0  0  0  0  0  0  0  0  0  0
  -15.0870  -24.4012   35.1471 H   0  0  0  0  0  0  0  0  0  0  0  0
  -14.6077  -24.2324   33.4666 H   0  0  0  0  0  0  0  0  0  0  0  0
  -15.6839  -26.1941   33.8473 H   0  0  0  0  0  0  0  0  0  0  0  0
  -18.5754  -25.4852   36.7038 H   0  0  0  0  0  0  0  0  0  0  0  0
  -17.8918  -25.7154   32.4039 H   0  0  0  0  0  0  0  0  0  0  0  0
  -15.1945  -26.5567   29.2672 H   0  0  0  0  0  0  0  0  0  0  0  0
  -13.6327  -27.5741   27.4079 H   0  0  0  0  0  0  0  0  0  0  0  0
  -14.9838  -28.0780   25.1992 H   0  0  0  0  0  0  0  0  0  0  0  0
  -17.1130  -25.7875   30.4824 H   0  0  0  0  0  0  0  0  0  0  0  0
  -21.3823  -25.2145   32.9676 H   0  0  0  0  0  0  0  0  0  0  0  0
  -21.6152  -25.8713   31.3426 H   0  0  0  0  0  0  0  0  0  0  0  0
  -21.8227  -23.6078   30.3742 H   0  0  0  0  0  0  0  0  0  0  0  0
  -22.1872  -23.0838   32.0350 H   0  0  0  0  0  0  0  0  0  0  0  0
  -19.5855  -22.6685   30.7810 H   0  0  0  0  0  0  0  0  0  0  0  0
  -19.8236  -22.7574   32.5382 H   0  0  0  0  0  0  0  0  0  0  0  0
  -16.3248  -21.6376   36.6506 H   0  0  0  0  0  0  0  0  0  0  0  0
  -14.7507  -20.1443   37.8499 H   0  0  0  0  0  0  0  0  0  0  0  0
  -13.5197  -21.8856   33.3331 H   0  0  0  0  0  0  0  0  0  0  0  0
  -10.4456  -19.5608   36.0110 H   0  0  0  0  0  0  0  0  0  0  0  0
  -11.4357  -18.2833   35.2637 H   0  0  0  0  0  0  0  0  0  0  0  0
  1  2  1  0
  2  3  1  0
  3  4  2  0
  3  5  2  0
  3  6  1  0
  6  7  1  0
  7  8  1  0
  8  9  1  0
  9 10  1  0
 10 11  1  0
 10 12  1  0
 10 13  1  0
 13 14  2  0
 13 15  1  0
 15 16  1  0
 16 17  1  0
 17 18  2  0
 18 19  1  0
 19 20  2  0
 20 21  1  0
 21 22  2  0
 22 23  1  0
 23 24  2  0
 24 25  1  0
 20 26  1  0
 16 27  1  0
 27 28  1  0
 28 29  1  0
  7 30  1  0
 30 31  2  0
 31 32  1  0
 32 33  2  0
 33 34  1  0
 34 35  2  0
 34 36  1  0
 36 37  1  0
 37 38  1  0
 29 16  1  0
 35 30  1  0
 26 17  1  0
 38 33  1  0
 25 21  1  0
  1 39  1  0
  1 40  1  0
  1 41  1  0
  2 42  1  0
  2 43  1  0
  6 44  1  0
  7 45  1  0
  8 46  1  0
  8 47  1  0
  9 48  1  0
 11 49  1  0
 15 50  1  0
 22 51  1  0
 23 52  1  0
 24 53  1  0
 26 54  1  0
 27 55  1  0
 27 56  1  0
 28 57  1  0
 28 58  1  0
 29 59  1  0
 29 60  1  0
 31 61  1  0
 32 62  1  0
 35 63  1  0
 37 64  1  0
 37 65  1  0
M  END
>  <Energy>  (357) 
30.55767938897554

>  <compound_id>  (357) 
2580

>  <target_id>  (357) 
1

>  <reference_id>  (357) 
161

>  <inspiration_ids>  (357) 
[173, 161]

>  <energy_score>  (357) 
-107.06014041048036

>  <distance_score>  (357) 
3.855254318975129

>  <path>  (357) 
/opt/xchem-fragalysis-2/maxwin/BulkDock/SCRATCH/505736/C2580-P161/C2580-P161.minimised.mol

>  <scratch_subdir>  (357) 
/opt/xchem-fragalysis-2/maxwin/BulkDock/SCRATCH/505736/C2580-P161

>  <fragmenstein_runtime>  (357) 
23.37730836868286

>  <fragmenstein_outcome>  (357) 
too moved

>  <fragmenstein_mode>  (357) 
expansion

>  <fragmenstein_error>  (357) 


$$$$
C1818-P174
     RDKit          3D

 47 50  0  0  0  0  0  0  0  0999 V2000
  -22.3268    3.1646   12.0151 C   0  0  0  0  0  0  0  0  0  0  0  0
  -21.5451    2.8380   13.2186 C   0  0  0  0  0  0  0  0  0  0  0  0
  -20.1891    3.0003   13.3164 N   0  0  0  0  0  0  0  0  0  0  0  0
  -19.8411    2.5804   14.5256 N   0  0  0  0  0  0  0  0  0  0  0  0
  -20.9992    2.2291   15.0999 N   0  0  0  0  0  0  0  0  0  0  0  0
  -21.0590    1.6532   16.4187 C   0  0  0  0  0  0  0  0  0  0  0  0
  -21.2180    0.1625   16.2736 C   0  0  0  0  0  0  0  0  0  0  0  0
  -21.5875   -0.5547   17.8890 S   0  0  0  0  0  0  0  0  0  0  0  0
  -21.1025   -2.2931   17.6096 C   0  0  0  0  0  0  0  0  0  0  0  0
  -21.0475   -2.7706   15.8895 Cl  0  0  0  0  0  0  0  0  0  0  0  0
  -22.0405   -3.3101   18.3495 C   0  0  0  0  0  0  0  0  0  0  0  0
  -21.9438   -4.4523   18.1354 O   0  0  0  0  0  0  0  0  0  0  0  0
  -23.0200   -2.5437   19.2643 N   0  0  0  0  0  0  0  0  0  0  0  0
  -24.1552   -3.0171   20.0393 C   0  0  0  0  0  0  0  0  0  0  0  0
  -25.4026   -2.5352   19.2649 C   0  0  0  0  0  0  0  0  0  0  0  0
  -25.9072   -1.3299   19.3794 N   0  0  0  0  0  0  0  0  0  0  0  0
  -26.7896   -1.1575   18.3530 N   0  0  0  0  0  0  0  0  0  0  0  0
  -26.7650   -2.2450   17.6112 C   0  0  0  0  0  0  0  0  0  0  0  0
  -27.3534   -2.3592   16.3267 C   0  0  0  0  0  0  0  0  0  0  0  0
  -28.0049   -3.4304   15.7573 C   0  0  0  0  0  0  0  0  0  0  0  0
  -28.4711   -3.1226   14.4456 C   0  0  0  0  0  0  0  0  0  0  0  0
  -28.1322   -1.8459   14.0575 C   0  0  0  0  0  0  0  0  0  0  0  0
  -27.2650   -1.0203   15.2647 S   0  0  0  0  0  0  0  0  0  0  0  0
  -25.9687   -3.1796   18.2013 N   0  0  0  0  0  0  0  0  0  0  0  0
  -24.1882   -4.5071   20.4456 C   0  0  0  0  0  0  0  0  0  0  0  0
  -24.6767   -4.0654   21.8385 C   0  0  0  0  0  0  0  0  0  0  0  0
  -24.0988   -2.6686   21.5417 C   0  0  0  0  0  0  0  0  0  0  0  0
  -22.0976    2.3456   14.3330 N   0  0  0  0  0  0  0  0  0  0  0  0
  -22.8425    2.2765   11.6372 H   0  0  0  0  0  0  0  0  0  0  0  0
  -23.0746    3.9319   12.2379 H   0  0  0  0  0  0  0  0  0  0  0  0
  -21.6778    3.5441   11.2200 H   0  0  0  0  0  0  0  0  0  0  0  0
  -21.8931    2.1267   16.9471 H   0  0  0  0  0  0  0  0  0  0  0  0
  -20.1158    1.8604   16.9195 H   0  0  0  0  0  0  0  0  0  0  0  0
  -20.2813   -0.2367   15.8704 H   0  0  0  0  0  0  0  0  0  0  0  0
  -22.0347   -0.0876   15.5879 H   0  0  0  0  0  0  0  0  0  0  0  0
  -20.0890   -2.4351   17.9888 H   0  0  0  0  0  0  0  0  0  0  0  0
  -22.8775   -1.5383   19.1500 H   0  0  0  0  0  0  0  0  0  0  0  0
  -28.1736   -4.3768   16.2560 H   0  0  0  0  0  0  0  0  0  0  0  0
  -29.0271   -3.8058   13.8147 H   0  0  0  0  0  0  0  0  0  0  0  0
  -28.3559   -1.3598   13.1176 H   0  0  0  0  0  0  0  0  0  0  0  0
  -25.6934   -4.0689   17.8122 H   0  0  0  0  0  0  0  0  0  0  0  0
  -24.8817   -5.1604   19.9071 H   0  0  0  0  0  0  0  0  0  0  0  0
  -23.2179   -5.0033   20.4610 H   0  0  0  0  0  0  0  0  0  0  0  0
  -24.2299   -4.5928   22.6852 H   0  0  0  0  0  0  0  0  0  0  0  0
  -25.7672   -4.0766   21.9464 H   0  0  0  0  0  0  0  0  0  0  0  0
  -23.0840   -2.5293   21.9337 H   0  0  0  0  0  0  0  0  0  0  0  0
  -24.7145   -1.8306   21.8810 H   0  0  0  0  0  0  0  0  0  0  0  0
  1  2  1  0
  2  3  1  0
  3  4  2  0
  4  5  1  0
  5  6  1  0
  6  7  1  0
  7  8  1  0
  8  9  1  0
  9 10  1  0
  9 11  1  0
 11 12  2  0
 11 13  1  0
 13 14  1  0
 14 15  1  0
 15 16  2  0
 16 17  1  0
 17 18  2  0
 18 19  1  0
 19 20  2  0
 20 21  1  0
 21 22  2  0
 22 23  1  0
 18 24  1  0
 14 25  1  0
 25 26  1  0
 26 27  1  0
  5 28  1  0
 28  2  2  0
 27 14  1  0
 24 15  1  0
 23 19  1  0
  1 29  1  0
  1 30  1  0
  1 31  1  0
  6 32  1  0
  6 33  1  0
  7 34  1  0
  7 35  1  0
  9 36  1  0
 13 37  1  0
 20 38  1  0
 21 39  1  0
 22 40  1  0
 24 41  1  0
 25 42  1  0
 25 43  1  0
 26 44  1  0
 26 45  1  0
 27 46  1  0
 27 47  1  0
M  END
>  <Energy>  (358) 
75.766251260625111

>  <compound_id>  (358) 
1818

>  <target_id>  (358) 
1

>  <reference_id>  (358) 
174

>  <inspiration_ids>  (358) 
[174, 18]

>  <energy_score>  (358) 
-28.704394528578746

>  <distance_score>  (358) 
1.4964427651674022

>  <path>  (358) 
/opt/xchem-fragalysis-2/maxwin/BulkDock/SCRATCH/505736/C1818-P174/C1818-P174.minimised.mol

>  <scratch_subdir>  (358) 
/opt/xchem-fragalysis-2/maxwin/BulkDock/SCRATCH/505736/C1818-P174

>  <fragmenstein_runtime>  (358) 
4.729722738265991

>  <fragmenstein_outcome>  (358) 
too moved

>  <fragmenstein_mode>  (358) 
expansion

>  <fragmenstein_error>  (358) 


$$$$
C1818-P18
     RDKit          3D

 47 50  0  0  0  0  0  0  0  0999 V2000
  -22.2218    2.8567   12.8698 C   0  0  0  0  0  0  0  0  0  0  0  0
  -21.4440    2.9103   14.1244 C   0  0  0  0  0  0  0  0  0  0  0  0
  -20.1175    2.5789   14.2063 N   0  0  0  0  0  0  0  0  0  0  0  0
  -19.7598    2.7409   15.4746 N   0  0  0  0  0  0  0  0  0  0  0  0
  -20.8855    3.1377   16.0931 N   0  0  0  0  0  0  0  0  0  0  0  0
  -20.9266    3.3934   17.5130 C   0  0  0  0  0  0  0  0  0  0  0  0
  -20.9092    2.1189   18.3471 C   0  0  0  0  0  0  0  0  0  0  0  0
  -22.3710    1.0493   18.1131 S   0  0  0  0  0  0  0  0  0  0  0  0
  -21.5531   -0.5906   17.8782 C   0  0  0  0  0  0  0  0  0  0  0  0
  -20.9641   -0.7808   16.2088 Cl  0  0  0  0  0  0  0  0  0  0  0  0
  -22.5638   -1.7407   18.2196 C   0  0  0  0  0  0  0  0  0  0  0  0
  -22.6642   -2.7176   17.5790 O   0  0  0  0  0  0  0  0  0  0  0  0
  -23.2791   -1.3221   19.5511 N   0  0  0  0  0  0  0  0  0  0  0  0
  -24.3405   -1.9903   20.3119 C   0  0  0  0  0  0  0  0  0  0  0  0
  -25.5253   -2.4201   19.3894 C   0  0  0  0  0  0  0  0  0  0  0  0
  -26.7889   -2.3447   19.7408 N   0  0  0  0  0  0  0  0  0  0  0  0
  -27.5541   -2.6410   18.6467 N   0  0  0  0  0  0  0  0  0  0  0  0
  -26.7334   -2.8169   17.6345 C   0  0  0  0  0  0  0  0  0  0  0  0
  -27.1162   -2.7187   16.2698 C   0  0  0  0  0  0  0  0  0  0  0  0
  -28.3804   -2.9101   15.7530 C   0  0  0  0  0  0  0  0  0  0  0  0
  -28.4651   -2.5200   14.3877 C   0  0  0  0  0  0  0  0  0  0  0  0
  -27.2582   -2.0619   13.9100 C   0  0  0  0  0  0  0  0  0  0  0  0
  -26.0258   -2.1418   15.0870 S   0  0  0  0  0  0  0  0  0  0  0  0
  -25.4507   -2.8736   18.1026 N   0  0  0  0  0  0  0  0  0  0  0  0
  -23.8838   -3.0783   21.3151 C   0  0  0  0  0  0  0  0  0  0  0  0
  -24.8775   -2.4937   22.3380 C   0  0  0  0  0  0  0  0  0  0  0  0
  -24.7826   -1.1645   21.5633 C   0  0  0  0  0  0  0  0  0  0  0  0
  -21.9584    3.3101   15.2970 N   0  0  0  0  0  0  0  0  0  0  0  0
  -22.7279    3.8098   12.6878 H   0  0  0  0  0  0  0  0  0  0  0  0
  -21.5685    2.6506   12.0165 H   0  0  0  0  0  0  0  0  0  0  0  0
  -22.9762    2.0660   12.9225 H   0  0  0  0  0  0  0  0  0  0  0  0
  -21.8169    3.9959   17.7268 H   0  0  0  0  0  0  0  0  0  0  0  0
  -20.0514    4.0098   17.7497 H   0  0  0  0  0  0  0  0  0  0  0  0
  -20.8763    2.3880   19.4080 H   0  0  0  0  0  0  0  0  0  0  0  0
  -20.0104    1.5541   18.1366 H   0  0  0  0  0  0  0  0  0  0  0  0
  -20.7061   -0.6931   18.5635 H   0  0  0  0  0  0  0  0  0  0  0  0
  -23.0194   -0.3683   19.7920 H   0  0  0  0  0  0  0  0  0  0  0  0
  -29.2179   -3.2585   16.3470 H   0  0  0  0  0  0  0  0  0  0  0  0
  -29.3682   -2.5590   13.7912 H   0  0  0  0  0  0  0  0  0  0  0  0
  -27.0365   -1.6998   12.9154 H   0  0  0  0  0  0  0  0  0  0  0  0
  -24.6124   -2.9813   17.5449 H   0  0  0  0  0  0  0  0  0  0  0  0
  -24.0585   -4.1197   21.0305 H   0  0  0  0  0  0  0  0  0  0  0  0
  -22.8542   -2.9773   21.6657 H   0  0  0  0  0  0  0  0  0  0  0  0
  -24.5285   -2.4636   23.3735 H   0  0  0  0  0  0  0  0  0  0  0  0
  -25.8691   -2.9589   22.3142 H   0  0  0  0  0  0  0  0  0  0  0  0
  -24.0106   -0.4915   21.9586 H   0  0  0  0  0  0  0  0  0  0  0  0
  -25.7151   -0.5979   21.4855 H   0  0  0  0  0  0  0  0  0  0  0  0
  1  2  1  0
  2  3  1  0
  3  4  2  0
  4  5  1  0
  5  6  1  0
  6  7  1  0
  7  8  1  0
  8  9  1  0
  9 10  1  0
  9 11  1  0
 11 12  2  0
 11 13  1  0
 13 14  1  0
 14 15  1  0
 15 16  2  0
 16 17  1  0
 17 18  2  0
 18 19  1  0
 19 20  2  0
 20 21  1  0
 21 22  2  0
 22 23  1  0
 18 24  1  0
 14 25  1  0
 25 26  1  0
 26 27  1  0
  5 28  1  0
 28  2  2  0
 27 14  1  0
 24 15  1  0
 23 19  1  0
  1 29  1  0
  1 30  1  0
  1 31  1  0
  6 32  1  0
  6 33  1  0
  7 34  1  0
  7 35  1  0
  9 36  1  0
 13 37  1  0
 20 38  1  0
 21 39  1  0
 22 40  1  0
 24 41  1  0
 25 42  1  0
 25 43  1  0
 26 44  1  0
 26 45  1  0
 27 46  1  0
 27 47  1  0
M  END
>  <Energy>  (359) 
71.15253561098055

>  <compound_id>  (359) 
1818

>  <target_id>  (359) 
1

>  <reference_id>  (359) 
18

>  <inspiration_ids>  (359) 
[174, 18]

>  <energy_score>  (359) 
-33.318110178223655

>  <distance_score>  (359) 
1.4433004533230458

>  <path>  (359) 
/opt/xchem-fragalysis-2/maxwin/BulkDock/SCRATCH/505736/C1818-P18/C1818-P18.minimised.mol

>  <scratch_subdir>  (359) 
/opt/xchem-fragalysis-2/maxwin/BulkDock/SCRATCH/505736/C1818-P18

>  <fragmenstein_runtime>  (359) 
5.1839470863342285

>  <fragmenstein_outcome>  (359) 
too moved

>  <fragmenstein_mode>  (359) 
expansion

>  <fragmenstein_error>  (359) 


$$$$
C2581-P174
     RDKit          3D

 68 72  0  0  0  0  0  0  0  0999 V2000
  -19.6444    1.8615   20.2096 C   0  0  0  0  0  0  0  0  0  0  0  0
  -20.4118    2.5071   21.3282 C   0  0  0  0  0  0  0  0  0  0  0  0
  -19.7188    3.4640   22.0958 C   0  0  0  0  0  0  0  0  0  0  0  0
  -20.3115    4.0636   23.2016 C   0  0  0  0  0  0  0  0  0  0  0  0
  -21.5934    3.6910   23.5643 C   0  0  0  0  0  0  0  0  0  0  0  0
  -22.1627    4.2592   24.6355 F   0  0  0  0  0  0  0  0  0  0  0  0
  -22.2953    2.7380   22.8355 C   0  0  0  0  0  0  0  0  0  0  0  0
  -21.7225    2.1439   21.7038 C   0  0  0  0  0  0  0  0  0  0  0  0
  -22.4750    1.2337   20.9454 N   0  0  0  0  0  0  0  0  0  0  0  0
  -23.7475    0.6016   21.2125 C   0  0  0  0  0  0  0  0  0  0  0  0
  -24.4475    0.6319   22.1850 O   0  0  0  0  0  0  0  0  0  0  0  0
  -24.2881   -0.2037   20.0659 C   0  0  0  0  0  0  0  0  0  0  0  0
  -25.6727   -0.2093   19.8689 C   0  0  0  0  0  0  0  0  0  0  0  0
  -26.1846   -0.9026   18.7906 C   0  0  0  0  0  0  0  0  0  0  0  0
  -25.4156   -1.5673   17.9073 N   0  0  0  0  0  0  0  0  0  0  0  0
  -24.0814   -1.5869   18.1245 C   0  0  0  0  0  0  0  0  0  0  0  0
  -23.2437   -2.2472   17.0632 C   0  0  0  0  0  0  0  0  0  0  0  0
  -22.6155   -1.1781   16.1634 C   0  0  0  0  0  0  0  0  0  0  0  0
  -22.0103   -1.7932   14.9055 C   0  0  0  0  0  0  0  0  0  0  0  0
  -21.1072   -0.5440   13.9198 S   0  0  0  0  0  0  0  0  0  0  0  0
  -19.5941   -0.4055   14.9139 C   0  0  0  0  0  0  0  0  0  0  0  0
  -18.6440   -1.8958   14.8213 Cl  0  0  0  0  0  0  0  0  0  0  0  0
  -18.7257    0.7868   14.4250 C   0  0  0  0  0  0  0  0  0  0  0  0
  -18.7652    1.8141   15.0502 O   0  0  0  0  0  0  0  0  0  0  0  0
  -18.0045    0.4441   13.2235 N   0  0  0  0  0  0  0  0  0  0  0  0
  -17.0268    1.1986   12.4457 C   0  0  0  0  0  0  0  0  0  0  0  0
  -17.7179    2.3945   11.7201 C   0  0  0  0  0  0  0  0  0  0  0  0
  -17.6527    2.6592   10.4356 N   0  0  0  0  0  0  0  0  0  0  0  0
  -18.4161    3.7825   10.2024 N   0  0  0  0  0  0  0  0  0  0  0  0
  -18.9475    4.1653   11.3457 C   0  0  0  0  0  0  0  0  0  0  0  0
  -19.8400    5.2655   11.5471 C   0  0  0  0  0  0  0  0  0  0  0  0
  -20.7196    5.4616   12.5961 C   0  0  0  0  0  0  0  0  0  0  0  0
  -21.4472    6.6834   12.4818 C   0  0  0  0  0  0  0  0  0  0  0  0
  -21.1075    7.3777   11.3436 C   0  0  0  0  0  0  0  0  0  0  0  0
  -19.9288    6.5547   10.4195 S   0  0  0  0  0  0  0  0  0  0  0  0
  -18.5105    3.3258   12.3323 N   0  0  0  0  0  0  0  0  0  0  0  0
  -15.7541    1.5918   13.2460 C   0  0  0  0  0  0  0  0  0  0  0  0
  -14.9187    1.1948   12.0135 C   0  0  0  0  0  0  0  0  0  0  0  0
  -16.1027    0.3147   11.5674 C   0  0  0  0  0  0  0  0  0  0  0  0
  -23.4801   -0.9398   19.2003 C   0  0  0  0  0  0  0  0  0  0  0  0
  -20.2906    1.5636   19.3808 H   0  0  0  0  0  0  0  0  0  0  0  0
  -18.8969    2.5474   19.7993 H   0  0  0  0  0  0  0  0  0  0  0  0
  -19.1079    0.9920   20.5946 H   0  0  0  0  0  0  0  0  0  0  0  0
  -18.6998    3.7412   21.8360 H   0  0  0  0  0  0  0  0  0  0  0  0
  -19.7782    4.8023   23.7887 H   0  0  0  0  0  0  0  0  0  0  0  0
  -23.3009    2.4930   23.1628 H   0  0  0  0  0  0  0  0  0  0  0  0
  -22.1343    0.9218   20.0504 H   0  0  0  0  0  0  0  0  0  0  0  0
  -26.3380    0.3257   20.5400 H   0  0  0  0  0  0  0  0  0  0  0  0
  -27.2529   -0.9323   18.5963 H   0  0  0  0  0  0  0  0  0  0  0  0
  -22.4690   -2.8693   17.5273 H   0  0  0  0  0  0  0  0  0  0  0  0
  -23.8774   -2.9177   16.4698 H   0  0  0  0  0  0  0  0  0  0  0  0
  -23.3763   -0.4420   15.8696 H   0  0  0  0  0  0  0  0  0  0  0  0
  -21.8607   -0.6340   16.7425 H   0  0  0  0  0  0  0  0  0  0  0  0
  -21.3546   -2.6342   15.1483 H   0  0  0  0  0  0  0  0  0  0  0  0
  -22.8116   -2.1887   14.2719 H   0  0  0  0  0  0  0  0  0  0  0  0
  -19.8521   -0.2337   15.9589 H   0  0  0  0  0  0  0  0  0  0  0  0
  -18.2758   -0.4949   12.9298 H   0  0  0  0  0  0  0  0  0  0  0  0
  -20.8517    4.7627   13.4119 H   0  0  0  0  0  0  0  0  0  0  0  0
  -22.1830    7.0338   13.1953 H   0  0  0  0  0  0  0  0  0  0  0  0
  -21.4967    8.3276   11.0032 H   0  0  0  0  0  0  0  0  0  0  0  0
  -18.7411    3.3588   13.3148 H   0  0  0  0  0  0  0  0  0  0  0  0
  -15.6650    2.6391   13.5503 H   0  0  0  0  0  0  0  0  0  0  0  0
  -15.5570    0.9630   14.1232 H   0  0  0  0  0  0  0  0  0  0  0  0
  -13.9863    0.6647   12.2234 H   0  0  0  0  0  0  0  0  0  0  0  0
  -14.7076    2.0293   11.3352 H   0  0  0  0  0  0  0  0  0  0  0  0
  -16.2973    0.3027   10.4912 H   0  0  0  0  0  0  0  0  0  0  0  0
  -16.0145   -0.7243   11.9078 H   0  0  0  0  0  0  0  0  0  0  0  0
  -22.4083   -1.0124   19.3349 H   0  0  0  0  0  0  0  0  0  0  0  0
  1  2  1  0
  2  3  2  0
  3  4  1  0
  4  5  2  0
  5  6  1  0
  5  7  1  0
  7  8  2  0
  8  9  1  0
  9 10  1  0
 10 11  2  0
 10 12  1  0
 12 13  2  0
 13 14  1  0
 14 15  2  0
 15 16  1  0
 16 17  1  0
 17 18  1  0
 18 19  1  0
 19 20  1  0
 20 21  1  0
 21 22  1  0
 21 23  1  0
 23 24  2  0
 23 25  1  0
 25 26  1  0
 26 27  1  0
 27 28  2  0
 28 29  1  0
 29 30  2  0
 30 31  1  0
 31 32  2  0
 32 33  1  0
 33 34  2  0
 34 35  1  0
 30 36  1  0
 26 37  1  0
 37 38  1  0
 38 39  1  0
 16 40  2  0
  8  2  1  0
 40 12  1  0
 39 26  1  0
 36 27  1  0
 35 31  1  0
  1 41  1  0
  1 42  1  0
  1 43  1  0
  3 44  1  0
  4 45  1  0
  7 46  1  0
  9 47  1  0
 13 48  1  0
 14 49  1  0
 17 50  1  0
 17 51  1  0
 18 52  1  0
 18 53  1  0
 19 54  1  0
 19 55  1  0
 21 56  1  0
 25 57  1  0
 32 58  1  0
 33 59  1  0
 34 60  1  0
 36 61  1  0
 37 62  1  0
 37 63  1  0
 38 64  1  0
 38 65  1  0
 39 66  1  0
 39 67  1  0
 40 68  1  0
M  END
>  <Energy>  (360) 
65.387709975264016

>  <compound_id>  (360) 
2581

>  <target_id>  (360) 
1

>  <reference_id>  (360) 
174

>  <inspiration_ids>  (360) 
[174, 43]

>  <energy_score>  (360) 
-84.14749722019874

>  <distance_score>  (360) 
2.932309149662411

>  <path>  (360) 
/opt/xchem-fragalysis-2/maxwin/BulkDock/SCRATCH/505736/C2581-P174/C2581-P174.minimised.mol

>  <scratch_subdir>  (360) 
/opt/xchem-fragalysis-2/maxwin/BulkDock/SCRATCH/505736/C2581-P174

>  <fragmenstein_runtime>  (360) 
16.475624561309814

>  <fragmenstein_outcome>  (360) 
too moved

>  <fragmenstein_mode>  (360) 
expansion

>  <fragmenstein_error>  (360) 


$$$$
C2581-P43
     RDKit          3D

 68 72  0  0  0  0  0  0  0  0999 V2000
  -19.8319    1.6219   19.6734 C   0  0  0  0  0  0  0  0  0  0  0  0
  -20.5667    2.4208   20.7146 C   0  0  0  0  0  0  0  0  0  0  0  0
  -19.8471    3.3835   21.4441 C   0  0  0  0  0  0  0  0  0  0  0  0
  -20.4751    4.1435   22.4267 C   0  0  0  0  0  0  0  0  0  0  0  0
  -21.8195    3.9388   22.6908 C   0  0  0  0  0  0  0  0  0  0  0  0
  -22.4169    4.6666   23.6437 F   0  0  0  0  0  0  0  0  0  0  0  0
  -22.5531    2.9927   21.9854 C   0  0  0  0  0  0  0  0  0  0  0  0
  -21.9402    2.2327   20.9844 C   0  0  0  0  0  0  0  0  0  0  0  0
  -22.6763    1.2930   20.2499 N   0  0  0  0  0  0  0  0  0  0  0  0
  -24.0504    0.8654   20.3671 C   0  0  0  0  0  0  0  0  0  0  0  0
  -24.9356    1.2603   21.0709 O   0  0  0  0  0  0  0  0  0  0  0  0
  -24.3965   -0.2590   19.4447 C   0  0  0  0  0  0  0  0  0  0  0  0
  -25.6379   -0.2670   18.8103 C   0  0  0  0  0  0  0  0  0  0  0  0
  -25.9165   -1.3075   17.9452 C   0  0  0  0  0  0  0  0  0  0  0  0
  -25.0506   -2.3103   17.6790 N   0  0  0  0  0  0  0  0  0  0  0  0
  -23.8621   -2.3030   18.3231 C   0  0  0  0  0  0  0  0  0  0  0  0
  -22.8626   -3.3686   17.9505 C   0  0  0  0  0  0  0  0  0  0  0  0
  -21.6880   -2.7860   17.1528 C   0  0  0  0  0  0  0  0  0  0  0  0
  -22.0983   -2.3651   15.7415 C   0  0  0  0  0  0  0  0  0  0  0  0
  -20.9751   -1.1362   14.9941 S   0  0  0  0  0  0  0  0  0  0  0  0
  -19.3407   -2.0487   14.9801 C   0  0  0  0  0  0  0  0  0  0  0  0
  -19.5541   -3.5020   14.0417 Cl  0  0  0  0  0  0  0  0  0  0  0  0
  -18.2738   -0.9599   14.5153 C   0  0  0  0  0  0  0  0  0  0  0  0
  -18.2247   -0.0066   15.2542 O   0  0  0  0  0  0  0  0  0  0  0  0
  -17.6123   -1.2079   13.2704 N   0  0  0  0  0  0  0  0  0  0  0  0
  -16.7455   -0.3455   12.4475 C   0  0  0  0  0  0  0  0  0  0  0  0
  -17.6321    0.8593   12.1667 C   0  0  0  0  0  0  0  0  0  0  0  0
  -18.0905    1.3142   11.0323 N   0  0  0  0  0  0  0  0  0  0  0  0
  -18.7269    2.4859   11.3402 N   0  0  0  0  0  0  0  0  0  0  0  0
  -18.6343    2.6571   12.6413 C   0  0  0  0  0  0  0  0  0  0  0  0
  -19.0213    3.7948   13.3610 C   0  0  0  0  0  0  0  0  0  0  0  0
  -19.8252    4.2589   14.9741 C   0  0  0  0  0  0  0  0  0  0  0  0
  -20.6628    6.2315   15.1605 C   0  0  0  0  0  0  0  0  0  0  0  0
  -20.2842    7.1618   13.5299 C   0  0  0  0  0  0  0  0  0  0  0  0
  -19.5459    5.5156   11.6234 S   0  0  0  0  0  0  0  0  0  0  0  0
  -18.0121    1.6389   13.2066 N   0  0  0  0  0  0  0  0  0  0  0  0
  -15.3851    0.2154   12.9628 C   0  0  0  0  0  0  0  0  0  0  0  0
  -14.8629    0.1056   11.5164 C   0  0  0  0  0  0  0  0  0  0  0  0
  -15.9931   -0.9086   11.2584 C   0  0  0  0  0  0  0  0  0  0  0  0
  -23.5099   -1.3123   19.2302 C   0  0  0  0  0  0  0  0  0  0  0  0
  -20.2522    1.8159   18.6814 H   0  0  0  0  0  0  0  0  0  0  0  0
  -18.7674    1.8772   19.6390 H   0  0  0  0  0  0  0  0  0  0  0  0
  -19.9069    0.5555   19.9032 H   0  0  0  0  0  0  0  0  0  0  0  0
  -18.7883    3.5422   21.2512 H   0  0  0  0  0  0  0  0  0  0  0  0
  -19.9276    4.8886   22.9914 H   0  0  0  0  0  0  0  0  0  0  0  0
  -23.6047    2.8787   22.2282 H   0  0  0  0  0  0  0  0  0  0  0  0
  -22.2366    0.7882   19.4908 H   0  0  0  0  0  0  0  0  0  0  0  0
  -26.3636    0.5211   18.9827 H   0  0  0  0  0  0  0  0  0  0  0  0
  -26.8660   -1.3618   17.4198 H   0  0  0  0  0  0  0  0  0  0  0  0
  -23.3545   -4.1611   17.3740 H   0  0  0  0  0  0  0  0  0  0  0  0
  -22.4873   -3.8344   18.8702 H   0  0  0  0  0  0  0  0  0  0  0  0
  -21.2636   -1.9402   17.7034 H   0  0  0  0  0  0  0  0  0  0  0  0
  -20.9032   -3.5493   17.0860 H   0  0  0  0  0  0  0  0  0  0  0  0
  -22.2010   -3.2377   15.0890 H   0  0  0  0  0  0  0  0  0  0  0  0
  -23.0775   -1.8777   15.7528 H   0  0  0  0  0  0  0  0  0  0  0  0
  -19.0751   -2.3801   15.9792 H   0  0  0  0  0  0  0  0  0  0  0  0
  -17.9585   -2.0922   12.8802 H   0  0  0  0  0  0  0  0  0  0  0  0
  -20.0870    3.5371   15.7460 H   0  0  0  0  0  0  0  0  0  0  0  0
  -21.3443    6.5013   15.9638 H   0  0  0  0  0  0  0  0  0  0  0  0
  -20.8383    7.9962   13.0794 H   0  0  0  0  0  0  0  0  0  0  0  0
  -17.8171    1.4853   14.1868 H   0  0  0  0  0  0  0  0  0  0  0  0
  -15.3667    1.2384   13.3574 H   0  0  0  0  0  0  0  0  0  0  0  0
  -14.8217   -0.3729   13.6634 H   0  0  0  0  0  0  0  0  0  0  0  0
  -13.8447   -0.2746   11.4051 H   0  0  0  0  0  0  0  0  0  0  0  0
  -14.9575    1.0319   10.9382 H   0  0  0  0  0  0  0  0  0  0  0  0
  -16.4669   -0.8323   10.2771 H   0  0  0  0  0  0  0  0  0  0  0  0
  -15.6870   -1.9296   11.4434 H   0  0  0  0  0  0  0  0  0  0  0  0
  -22.5565   -1.3642   19.7427 H   0  0  0  0  0  0  0  0  0  0  0  0
  1  2  1  0
  2  3  2  0
  3  4  1  0
  4  5  2  0
  5  6  1  0
  5  7  1  0
  7  8  2  0
  8  9  1  0
  9 10  1  0
 10 11  2  0
 10 12  1  0
 12 13  2  0
 13 14  1  0
 14 15  2  0
 15 16  1  0
 16 17  1  0
 17 18  1  0
 18 19  1  0
 19 20  1  0
 20 21  1  0
 21 22  1  0
 21 23  1  0
 23 24  2  0
 23 25  1  0
 25 26  1  0
 26 27  1  0
 27 28  2  0
 28 29  1  0
 29 30  2  0
 30 31  1  0
 31 32  2  0
 32 33  1  0
 33 34  2  0
 34 35  1  0
 30 36  1  0
 26 37  1  0
 37 38  1  0
 38 39  1  0
 16 40  2  0
  8  2  1  0
 40 12  1  0
 39 26  1  0
 36 27  1  0
 35 31  1  0
  1 41  1  0
  1 42  1  0
  1 43  1  0
  3 44  1  0
  4 45  1  0
  7 46  1  0
  9 47  1  0
 13 48  1  0
 14 49  1  0
 17 50  1  0
 17 51  1  0
 18 52  1  0
 18 53  1  0
 19 54  1  0
 19 55  1  0
 21 56  1  0
 25 57  1  0
 32 58  1  0
 33 59  1  0
 34 60  1  0
 36 61  1  0
 37 62  1  0
 37 63  1  0
 38 64  1  0
 38 65  1  0
 39 66  1  0
 39 67  1  0
 40 68  1  0
M  END
>  <Energy>  (361) 
738.95663592662368

>  <compound_id>  (361) 
2581

>  <target_id>  (361) 
1

>  <reference_id>  (361) 
43

>  <inspiration_ids>  (361) 
[174, 43]

>  <energy_score>  (361) 
589.4214287311539

>  <distance_score>  (361) 
2.6651134044958327

>  <path>  (361) 
/opt/xchem-fragalysis-2/maxwin/BulkDock/SCRATCH/505736/C2581-P43/C2581-P43.minimised.mol

>  <scratch_subdir>  (361) 
/opt/xchem-fragalysis-2/maxwin/BulkDock/SCRATCH/505736/C2581-P43

>  <fragmenstein_runtime>  (361) 
13.5620858669281

>  <fragmenstein_outcome>  (361) 
too moved

>  <fragmenstein_mode>  (361) 
expansion

>  <fragmenstein_error>  (361) 


$$$$
C2582-P174
     RDKit          3D

 52 56  0  0  0  0  0  0  0  0999 V2000
  -17.4819    3.0750   13.9746 O   0  0  0  0  0  0  0  0  0  0  0  0
  -17.2846    1.9092   13.9148 C   0  0  0  0  0  0  0  0  0  0  0  0
  -18.2445    0.6792   14.2640 N   0  0  0  0  0  0  0  0  0  0  0  0
  -19.7055    0.6574   14.6724 C   0  0  0  0  0  0  0  0  0  0  0  0
  -20.2931   -0.5219   15.6527 C   0  0  0  0  0  0  0  0  0  0  0  0
  -19.8462   -1.7531   15.7920 N   0  0  0  0  0  0  0  0  0  0  0  0
  -20.8315   -2.4949   16.4471 N   0  0  0  0  0  0  0  0  0  0  0  0
  -21.8720   -1.7127   16.6764 C   0  0  0  0  0  0  0  0  0  0  0  0
  -23.1994   -2.1233   17.0796 C   0  0  0  0  0  0  0  0  0  0  0  0
  -23.6130   -3.4026   17.4088 C   0  0  0  0  0  0  0  0  0  0  0  0
  -25.0200   -3.5079   17.6309 C   0  0  0  0  0  0  0  0  0  0  0  0
  -25.6471   -2.2923   17.4823 C   0  0  0  0  0  0  0  0  0  0  0  0
  -24.5372   -1.0419   17.1093 S   0  0  0  0  0  0  0  0  0  0  0  0
  -21.5112   -0.4414   16.3112 N   0  0  0  0  0  0  0  0  0  0  0  0
  -20.2491    2.0765   15.0533 C   0  0  0  0  0  0  0  0  0  0  0  0
  -20.6723    2.2824   13.5881 C   0  0  0  0  0  0  0  0  0  0  0  0
  -20.6161    0.7592   13.3949 C   0  0  0  0  0  0  0  0  0  0  0  0
  -15.7919    1.4192   13.3604 C   0  0  0  0  0  0  0  0  0  0  0  0
  -15.9831   -0.0166   12.2993 S   0  0  0  0  0  0  0  0  0  0  0  0
  -14.8787    1.1477   14.8404 Cl  0  0  0  0  0  0  0  0  0  0  0  0
  -15.1257    2.5379   12.6768 N   0  0  0  0  0  0  0  0  0  0  0  0
  -13.7683    2.4396   12.1350 C   0  0  0  0  0  0  0  0  0  0  0  0
  -12.5906    2.5319   12.9723 N   0  0  0  0  0  0  0  0  0  0  0  0
  -11.5577    3.4019   12.7343 C   0  0  0  0  0  0  0  0  0  0  0  0
  -10.9891    4.1132   13.6864 N   0  0  0  0  0  0  0  0  0  0  0  0
   -9.9474    4.8297   13.1991 N   0  0  0  0  0  0  0  0  0  0  0  0
   -9.8291    4.5101   11.9380 C   0  0  0  0  0  0  0  0  0  0  0  0
   -8.8716    4.9001   10.9720 C   0  0  0  0  0  0  0  0  0  0  0  0
   -8.9370    4.3685    9.7427 C   0  0  0  0  0  0  0  0  0  0  0  0
   -9.9705    3.4126    9.3843 C   0  0  0  0  0  0  0  0  0  0  0  0
  -10.8870    3.0464   10.2975 C   0  0  0  0  0  0  0  0  0  0  0  0
  -10.8237    3.5978   11.5722 N   0  0  0  0  0  0  0  0  0  0  0  0
  -17.7256   -0.1958   14.1773 H   0  0  0  0  0  0  0  0  0  0  0  0
  -22.9237   -4.2346   17.4375 H   0  0  0  0  0  0  0  0  0  0  0  0
  -25.5409   -4.4260   17.8759 H   0  0  0  0  0  0  0  0  0  0  0  0
  -26.7009   -2.0717   17.5886 H   0  0  0  0  0  0  0  0  0  0  0  0
  -22.1320    0.3509   16.3161 H   0  0  0  0  0  0  0  0  0  0  0  0
  -19.5172    2.7936   15.4320 H   0  0  0  0  0  0  0  0  0  0  0  0
  -21.1007    2.1046   15.7407 H   0  0  0  0  0  0  0  0  0  0  0  0
  -21.6566    2.7366   13.4447 H   0  0  0  0  0  0  0  0  0  0  0  0
  -19.9457    2.8308   12.9803 H   0  0  0  0  0  0  0  0  0  0  0  0
  -20.1640    0.4307   12.4534 H   0  0  0  0  0  0  0  0  0  0  0  0
  -21.5993    0.2805   13.4806 H   0  0  0  0  0  0  0  0  0  0  0  0
  -14.6793   -0.2246   12.0967 H   0  0  0  0  0  0  0  0  0  0  0  0
  -15.1726    3.3532   13.2879 H   0  0  0  0  0  0  0  0  0  0  0  0
  -13.7231    3.2567   11.4030 H   0  0  0  0  0  0  0  0  0  0  0  0
  -13.6707    1.5388   11.5214 H   0  0  0  0  0  0  0  0  0  0  0  0
  -12.8679    2.6425   13.9553 H   0  0  0  0  0  0  0  0  0  0  0  0
   -8.0966    5.6021   11.2577 H   0  0  0  0  0  0  0  0  0  0  0  0
   -8.2063    4.6335    8.9845 H   0  0  0  0  0  0  0  0  0  0  0  0
   -9.9678    2.9944    8.3826 H   0  0  0  0  0  0  0  0  0  0  0  0
  -11.6625    2.3199   10.0990 H   0  0  0  0  0  0  0  0  0  0  0  0
  1  2  2  0
  2  3  1  0
  3  4  1  0
  4  5  1  0
  5  6  2  0
  6  7  1  0
  7  8  2  0
  8  9  1  0
  9 10  2  0
 10 11  1  0
 11 12  2  0
 12 13  1  0
  8 14  1  0
  4 15  1  0
 15 16  1  0
 16 17  1  0
  2 18  1  0
 18 19  1  0
 18 20  1  0
 18 21  1  0
 21 22  1  0
 22 23  1  0
 23 24  1  0
 24 25  2  0
 25 26  1  0
 26 27  2  0
 27 28  1  0
 28 29  2  0
 29 30  1  0
 30 31  2  0
 31 32  1  0
 17  4  1  0
 32 24  1  0
 14  5  1  0
 32 27  1  0
 13  9  1  0
  3 33  1  0
 10 34  1  0
 11 35  1  0
 12 36  1  0
 14 37  1  0
 15 38  1  0
 15 39  1  0
 16 40  1  0
 16 41  1  0
 17 42  1  0
 17 43  1  0
 19 44  1  0
 21 45  1  0
 22 46  1  0
 22 47  1  0
 23 48  1  0
 28 49  1  0
 29 50  1  0
 30 51  1  0
 31 52  1  0
M  END
>  <Energy>  (362) 
58.766321840735529

>  <compound_id>  (362) 
2582

>  <target_id>  (362) 
1

>  <reference_id>  (362) 
174

>  <inspiration_ids>  (362) 
[174, 100]

>  <energy_score>  (362) 
-47.204416625742795

>  <distance_score>  (362) 
1.8848571514340822

>  <path>  (362) 
/opt/xchem-fragalysis-2/maxwin/BulkDock/SCRATCH/505736/C2582-P174/C2582-P174.minimised.mol

>  <scratch_subdir>  (362) 
/opt/xchem-fragalysis-2/maxwin/BulkDock/SCRATCH/505736/C2582-P174

>  <fragmenstein_runtime>  (362) 
32.05717396736145

>  <fragmenstein_outcome>  (362) 
too moved

>  <fragmenstein_mode>  (362) 
expansion

>  <fragmenstein_error>  (362) 


$$$$
C2582-P100
     RDKit          3D

 52 56  0  0  0  0  0  0  0  0999 V2000
  -17.7597    2.5913   14.4352 O   0  0  0  0  0  0  0  0  0  0  0  0
  -17.5932    1.4822   14.0569 C   0  0  0  0  0  0  0  0  0  0  0  0
  -18.6131    0.2548   13.9741 N   0  0  0  0  0  0  0  0  0  0  0  0
  -20.1066    0.1918   14.2618 C   0  0  0  0  0  0  0  0  0  0  0  0
  -20.6865   -0.9213   15.2953 C   0  0  0  0  0  0  0  0  0  0  0  0
  -20.3331   -2.1897   15.3372 N   0  0  0  0  0  0  0  0  0  0  0  0
  -21.2683   -2.8669   16.1087 N   0  0  0  0  0  0  0  0  0  0  0  0
  -22.1949   -2.0098   16.4971 C   0  0  0  0  0  0  0  0  0  0  0  0
  -23.4948   -2.3439   17.0276 C   0  0  0  0  0  0  0  0  0  0  0  0
  -23.9629   -3.6094   17.3408 C   0  0  0  0  0  0  0  0  0  0  0  0
  -25.3462   -3.6266   17.6924 C   0  0  0  0  0  0  0  0  0  0  0  0
  -25.8943   -2.3650   17.6554 C   0  0  0  0  0  0  0  0  0  0  0  0
  -24.7372   -1.1753   17.2345 S   0  0  0  0  0  0  0  0  0  0  0  0
  -21.7695   -0.7544   16.1402 N   0  0  0  0  0  0  0  0  0  0  0  0
  -20.8002    1.5862   14.3855 C   0  0  0  0  0  0  0  0  0  0  0  0
  -20.9496    1.5965   12.8503 C   0  0  0  0  0  0  0  0  0  0  0  0
  -20.8886    0.0613   12.8978 C   0  0  0  0  0  0  0  0  0  0  0  0
  -16.1031    1.0980   13.3868 C   0  0  0  0  0  0  0  0  0  0  0  0
  -16.2615   -0.3487   12.3236 S   0  0  0  0  0  0  0  0  0  0  0  0
  -15.0570    0.8913   14.7962 Cl  0  0  0  0  0  0  0  0  0  0  0  0
  -15.5269    2.2420   12.6659 N   0  0  0  0  0  0  0  0  0  0  0  0
  -14.2000    2.1249   12.0495 C   0  0  0  0  0  0  0  0  0  0  0  0
  -12.9776    2.6191   12.6792 N   0  0  0  0  0  0  0  0  0  0  0  0
  -12.5859    3.8735   12.3018 C   0  0  0  0  0  0  0  0  0  0  0  0
  -13.0898    5.0134   12.7200 N   0  0  0  0  0  0  0  0  0  0  0  0
  -12.3131    6.0458   12.2577 N   0  0  0  0  0  0  0  0  0  0  0  0
  -11.3305    5.5150   11.5702 C   0  0  0  0  0  0  0  0  0  0  0  0
  -10.2003    6.0835   10.9285 C   0  0  0  0  0  0  0  0  0  0  0  0
   -9.3715    5.2834   10.2346 C   0  0  0  0  0  0  0  0  0  0  0  0
   -9.6346    3.8616   10.0884 C   0  0  0  0  0  0  0  0  0  0  0  0
  -10.6605    3.3088   10.7550 C   0  0  0  0  0  0  0  0  0  0  0  0
  -11.4919    4.1349   11.5023 N   0  0  0  0  0  0  0  0  0  0  0  0
  -18.1577   -0.5397   13.5184 H   0  0  0  0  0  0  0  0  0  0  0  0
  -23.3423   -4.4933   17.2623 H   0  0  0  0  0  0  0  0  0  0  0  0
  -25.9093   -4.5172   17.9443 H   0  0  0  0  0  0  0  0  0  0  0  0
  -26.9153   -2.0791   17.8700 H   0  0  0  0  0  0  0  0  0  0  0  0
  -22.2956    0.0921   16.2811 H   0  0  0  0  0  0  0  0  0  0  0  0
  -20.2113    2.3911   14.8265 H   0  0  0  0  0  0  0  0  0  0  0  0
  -21.7754    1.5989   14.8855 H   0  0  0  0  0  0  0  0  0  0  0  0
  -21.8796    2.0239   12.4670 H   0  0  0  0  0  0  0  0  0  0  0  0
  -20.1078    2.0426   12.3125 H   0  0  0  0  0  0  0  0  0  0  0  0
  -20.3488   -0.4091   12.0700 H   0  0  0  0  0  0  0  0  0  0  0  0
  -21.8780   -0.4077   12.9712 H   0  0  0  0  0  0  0  0  0  0  0  0
  -14.9581   -0.5822   12.1667 H   0  0  0  0  0  0  0  0  0  0  0  0
  -15.5340    3.0651   13.2671 H   0  0  0  0  0  0  0  0  0  0  0  0
  -14.3014    2.6142   11.0702 H   0  0  0  0  0  0  0  0  0  0  0  0
  -13.9799    1.0909   11.7761 H   0  0  0  0  0  0  0  0  0  0  0  0
  -13.1589    2.6620   13.6888 H   0  0  0  0  0  0  0  0  0  0  0  0
  -10.0198    7.1470   11.0307 H   0  0  0  0  0  0  0  0  0  0  0  0
   -8.4872    5.6857    9.7493 H   0  0  0  0  0  0  0  0  0  0  0  0
   -8.9839    3.2699    9.4542 H   0  0  0  0  0  0  0  0  0  0  0  0
  -10.8977    2.2533   10.7296 H   0  0  0  0  0  0  0  0  0  0  0  0
  1  2  2  0
  2  3  1  0
  3  4  1  0
  4  5  1  0
  5  6  2  0
  6  7  1  0
  7  8  2  0
  8  9  1  0
  9 10  2  0
 10 11  1  0
 11 12  2  0
 12 13  1  0
  8 14  1  0
  4 15  1  0
 15 16  1  0
 16 17  1  0
  2 18  1  0
 18 19  1  0
 18 20  1  0
 18 21  1  0
 21 22  1  0
 22 23  1  0
 23 24  1  0
 24 25  2  0
 25 26  1  0
 26 27  2  0
 27 28  1  0
 28 29  2  0
 29 30  1  0
 30 31  2  0
 31 32  1  0
 17  4  1  0
 32 24  1  0
 14  5  1  0
 32 27  1  0
 13  9  1  0
  3 33  1  0
 10 34  1  0
 11 35  1  0
 12 36  1  0
 14 37  1  0
 15 38  1  0
 15 39  1  0
 16 40  1  0
 16 41  1  0
 17 42  1  0
 17 43  1  0
 19 44  1  0
 21 45  1  0
 22 46  1  0
 22 47  1  0
 23 48  1  0
 28 49  1  0
 29 50  1  0
 30 51  1  0
 31 52  1  0
M  END
>  <Energy>  (363) 
59.711685116982785

>  <compound_id>  (363) 
2582

>  <target_id>  (363) 
1

>  <reference_id>  (363) 
100

>  <inspiration_ids>  (363) 
[174, 100]

>  <energy_score>  (363) 
-46.25905334949499

>  <distance_score>  (363) 
1.9308943414584396

>  <path>  (363) 
/opt/xchem-fragalysis-2/maxwin/BulkDock/SCRATCH/505736/C2582-P100/C2582-P100.minimised.mol

>  <scratch_subdir>  (363) 
/opt/xchem-fragalysis-2/maxwin/BulkDock/SCRATCH/505736/C2582-P100

>  <fragmenstein_runtime>  (363) 
29.08412194252014

>  <fragmenstein_outcome>  (363) 
too moved

>  <fragmenstein_mode>  (363) 
expansion

>  <fragmenstein_error>  (363) 


$$$$
C1023-P174
     RDKit          3D

 59 63  0  0  0  0  0  0  0  0999 V2000
   -9.7695    2.2645    9.7898 C   0  0  0  0  0  0  0  0  0  0  0  0
  -11.1977    2.6100   10.2208 C   0  0  0  0  0  0  0  0  0  0  0  0
  -11.4199    4.1186   10.0944 C   0  0  0  0  0  0  0  0  0  0  0  0
  -12.0501    1.9783    9.2660 O   0  0  0  0  0  0  0  0  0  0  0  0
  -12.4961    0.7668    9.6526 C   0  0  0  0  0  0  0  0  0  0  0  0
  -12.3833   -0.2443    8.9923 O   0  0  0  0  0  0  0  0  0  0  0  0
  -13.2365    0.8920   10.9097 C   0  0  0  0  0  0  0  0  0  0  0  0
  -14.5293    0.3596   11.1137 C   0  0  0  0  0  0  0  0  0  0  0  0
  -15.1879    0.5994   12.3288 C   0  0  0  0  0  0  0  0  0  0  0  0
  -16.5545    0.4772   12.4431 O   0  0  0  0  0  0  0  0  0  0  0  0
  -17.1338   -0.6119   13.1860 C   0  0  0  0  0  0  0  0  0  0  0  0
  -18.1222    0.0259   14.6140 S   0  0  0  0  0  0  0  0  0  0  0  0
  -19.6146   -1.0538   14.6699 C   0  0  0  0  0  0  0  0  0  0  0  0
  -19.4171   -2.6987   14.0675 Cl  0  0  0  0  0  0  0  0  0  0  0  0
  -20.2012   -1.2627   16.1166 C   0  0  0  0  0  0  0  0  0  0  0  0
  -19.6610   -1.9237   16.9203 O   0  0  0  0  0  0  0  0  0  0  0  0
  -21.5904   -0.5383   16.1661 N   0  0  0  0  0  0  0  0  0  0  0  0
  -22.5552   -0.4053   17.2619 C   0  0  0  0  0  0  0  0  0  0  0  0
  -23.6137   -1.5800   17.2332 C   0  0  0  0  0  0  0  0  0  0  0  0
  -23.3747   -2.8150   16.8464 N   0  0  0  0  0  0  0  0  0  0  0  0
  -24.5876   -3.4459   16.6469 N   0  0  0  0  0  0  0  0  0  0  0  0
  -25.5295   -2.5703   16.9185 C   0  0  0  0  0  0  0  0  0  0  0  0
  -26.8877   -2.5948   16.4856 C   0  0  0  0  0  0  0  0  0  0  0  0
  -27.5289   -3.5781   15.7631 C   0  0  0  0  0  0  0  0  0  0  0  0
  -28.8268   -3.1711   15.3378 C   0  0  0  0  0  0  0  0  0  0  0  0
  -29.1425   -1.9057   15.7762 C   0  0  0  0  0  0  0  0  0  0  0  0
  -27.8978   -1.2272   16.7167 S   0  0  0  0  0  0  0  0  0  0  0  0
  -24.9485   -1.4745   17.4987 N   0  0  0  0  0  0  0  0  0  0  0  0
  -21.9519   -0.1389   18.6594 C   0  0  0  0  0  0  0  0  0  0  0  0
  -22.9950    0.9752   18.8625 C   0  0  0  0  0  0  0  0  0  0  0  0
  -23.1520    1.0328   17.3340 C   0  0  0  0  0  0  0  0  0  0  0  0
  -14.5061    1.2990   13.3272 C   0  0  0  0  0  0  0  0  0  0  0  0
  -15.1578    1.6002   14.4938 O   0  0  0  0  0  0  0  0  0  0  0  0
  -13.2092    1.7917   13.1243 C   0  0  0  0  0  0  0  0  0  0  0  0
  -12.6023    1.6510   11.8774 C   0  0  0  0  0  0  0  0  0  0  0  0
  -11.4076    2.2696   11.6167 O   0  0  0  0  0  0  0  0  0  0  0  0
   -9.0369    2.7686   10.4283 H   0  0  0  0  0  0  0  0  0  0  0  0
   -9.5912    1.1873    9.8858 H   0  0  0  0  0  0  0  0  0  0  0  0
   -9.5843    2.5337    8.7445 H   0  0  0  0  0  0  0  0  0  0  0  0
  -11.2546    4.4647    9.0684 H   0  0  0  0  0  0  0  0  0  0  0  0
  -10.7659    4.6761   10.7733 H   0  0  0  0  0  0  0  0  0  0  0  0
  -12.4529    4.3754   10.3569 H   0  0  0  0  0  0  0  0  0  0  0  0
  -15.0323   -0.1601   10.3015 H   0  0  0  0  0  0  0  0  0  0  0  0
  -17.8239   -1.0782   12.4858 H   0  0  0  0  0  0  0  0  0  0  0  0
  -16.3769   -1.3144   13.5378 H   0  0  0  0  0  0  0  0  0  0  0  0
  -20.3565   -0.5851   14.0196 H   0  0  0  0  0  0  0  0  0  0  0  0
  -21.7132    0.0158   15.3289 H   0  0  0  0  0  0  0  0  0  0  0  0
  -27.0648   -4.5240   15.5056 H   0  0  0  0  0  0  0  0  0  0  0  0
  -29.4923   -3.7779   14.7354 H   0  0  0  0  0  0  0  0  0  0  0  0
  -30.0585   -1.3579   15.6000 H   0  0  0  0  0  0  0  0  0  0  0  0
  -25.4437   -0.6347   17.7530 H   0  0  0  0  0  0  0  0  0  0  0  0
  -22.0287   -0.9588   19.3778 H   0  0  0  0  0  0  0  0  0  0  0  0
  -20.9220    0.2345   18.6499 H   0  0  0  0  0  0  0  0  0  0  0  0
  -23.8971    0.6468   19.3904 H   0  0  0  0  0  0  0  0  0  0  0  0
  -22.6239    1.8892   19.3336 H   0  0  0  0  0  0  0  0  0  0  0  0
  -24.1737    1.1727   16.9700 H   0  0  0  0  0  0  0  0  0  0  0  0
  -22.5243    1.8056   16.8710 H   0  0  0  0  0  0  0  0  0  0  0  0
  -16.1059    1.4615   14.3057 H   0  0  0  0  0  0  0  0  0  0  0  0
  -12.7148    2.3542   13.9059 H   0  0  0  0  0  0  0  0  0  0  0  0
  1  2  1  0
  2  3  1  0
  2  4  1  0
  4  5  1  0
  5  6  2  0
  5  7  1  0
  7  8  2  0
  8  9  1  0
  9 10  1  0
 10 11  1  0
 11 12  1  0
 12 13  1  0
 13 14  1  0
 13 15  1  0
 15 16  2  0
 15 17  1  0
 17 18  1  0
 18 19  1  0
 19 20  2  0
 20 21  1  0
 21 22  2  0
 22 23  1  0
 23 24  2  0
 24 25  1  0
 25 26  2  0
 26 27  1  0
 22 28  1  0
 18 29  1  0
 29 30  1  0
 30 31  1  0
  9 32  2  0
 32 33  1  0
 32 34  1  0
 34 35  2  0
 35 36  1  0
 36  2  1  0
 35  7  1  0
 31 18  1  0
 28 19  1  0
 27 23  1  0
  1 37  1  0
  1 38  1  0
  1 39  1  0
  3 40  1  0
  3 41  1  0
  3 42  1  0
  8 43  1  0
 11 44  1  0
 11 45  1  0
 13 46  1  0
 17 47  1  0
 24 48  1  0
 25 49  1  0
 26 50  1  0
 28 51  1  0
 29 52  1  0
 29 53  1  0
 30 54  1  0
 30 55  1  0
 31 56  1  0
 31 57  1  0
 33 58  1  0
 34 59  1  0
M  END
>  <Energy>  (364) 
97.199320778251831

>  <compound_id>  (364) 
1023

>  <target_id>  (364) 
1

>  <reference_id>  (364) 
174

>  <inspiration_ids>  (364) 
[174, 126]

>  <energy_score>  (364) 
-28.763825726393094

>  <distance_score>  (364) 
1.950128761921521

>  <path>  (364) 
/opt/xchem-fragalysis-2/maxwin/BulkDock/SCRATCH/505736/C1023-P174/C1023-P174.minimised.mol

>  <scratch_subdir>  (364) 
/opt/xchem-fragalysis-2/maxwin/BulkDock/SCRATCH/505736/C1023-P174

>  <fragmenstein_runtime>  (364) 
52.59056067466736

>  <fragmenstein_outcome>  (364) 
too moved

>  <fragmenstein_mode>  (364) 
expansion

>  <fragmenstein_error>  (364) 


$$$$
C1023-P126
     RDKit          3D

 59 63  0  0  0  0  0  0  0  0999 V2000
  -11.6529    3.1391    8.6220 C   0  0  0  0  0  0  0  0  0  0  0  0
  -11.1204    2.8334   10.0303 C   0  0  0  0  0  0  0  0  0  0  0  0
   -9.8666    3.6704   10.2488 C   0  0  0  0  0  0  0  0  0  0  0  0
  -10.7489    1.4616   10.0865 O   0  0  0  0  0  0  0  0  0  0  0  0
  -11.7735    0.5769   10.1352 C   0  0  0  0  0  0  0  0  0  0  0  0
  -11.6961   -0.5229    9.6213 O   0  0  0  0  0  0  0  0  0  0  0  0
  -12.9330    1.0067   10.9469 C   0  0  0  0  0  0  0  0  0  0  0  0
  -14.0317    0.1592   11.2327 C   0  0  0  0  0  0  0  0  0  0  0  0
  -15.0275    0.5271   12.1649 C   0  0  0  0  0  0  0  0  0  0  0  0
  -16.0805   -0.3614   12.3439 O   0  0  0  0  0  0  0  0  0  0  0  0
  -17.2560    0.1273   13.0222 C   0  0  0  0  0  0  0  0  0  0  0  0
  -18.8334   -0.8141   12.7040 S   0  0  0  0  0  0  0  0  0  0  0  0
  -19.4985   -0.8502   14.3926 C   0  0  0  0  0  0  0  0  0  0  0  0
  -19.5509    0.8567   14.9998 Cl  0  0  0  0  0  0  0  0  0  0  0  0
  -20.9758   -1.3152   14.6613 C   0  0  0  0  0  0  0  0  0  0  0  0
  -21.8011   -1.4857   13.8431 O   0  0  0  0  0  0  0  0  0  0  0  0
  -21.0709   -1.3783   16.2398 N   0  0  0  0  0  0  0  0  0  0  0  0
  -22.2356   -1.5709   17.1192 C   0  0  0  0  0  0  0  0  0  0  0  0
  -23.3453   -2.5817   16.7220 C   0  0  0  0  0  0  0  0  0  0  0  0
  -23.6295   -3.7003   17.3577 N   0  0  0  0  0  0  0  0  0  0  0  0
  -24.9366   -4.0394   17.0579 N   0  0  0  0  0  0  0  0  0  0  0  0
  -25.4145   -3.0869   16.2869 C   0  0  0  0  0  0  0  0  0  0  0  0
  -26.7735   -2.8098   15.9631 C   0  0  0  0  0  0  0  0  0  0  0  0
  -27.8526   -3.6651   15.9681 C   0  0  0  0  0  0  0  0  0  0  0  0
  -29.0599   -3.0044   15.5926 C   0  0  0  0  0  0  0  0  0  0  0  0
  -28.8666   -1.6649   15.3430 C   0  0  0  0  0  0  0  0  0  0  0  0
  -27.2422   -1.2084   15.5501 S   0  0  0  0  0  0  0  0  0  0  0  0
  -24.3809   -2.2817   15.8957 N   0  0  0  0  0  0  0  0  0  0  0  0
  -21.7869   -1.7644   18.5914 C   0  0  0  0  0  0  0  0  0  0  0  0
  -21.8682   -0.2409   18.7920 C   0  0  0  0  0  0  0  0  0  0  0  0
  -22.8256   -0.1955   17.5891 C   0  0  0  0  0  0  0  0  0  0  0  0
  -14.8448    1.7407   12.8357 C   0  0  0  0  0  0  0  0  0  0  0  0
  -15.6688    2.1104   13.8660 O   0  0  0  0  0  0  0  0  0  0  0  0
  -13.8113    2.6231   12.4739 C   0  0  0  0  0  0  0  0  0  0  0  0
  -12.8911    2.2751   11.4883 C   0  0  0  0  0  0  0  0  0  0  0  0
  -12.0167    3.2372   11.0782 O   0  0  0  0  0  0  0  0  0  0  0  0
  -10.9358    2.8414    7.8495 H   0  0  0  0  0  0  0  0  0  0  0  0
  -12.5846    2.5976    8.4247 H   0  0  0  0  0  0  0  0  0  0  0  0
  -11.8839    4.2041    8.5119 H   0  0  0  0  0  0  0  0  0  0  0  0
  -10.0803    4.7423   10.1694 H   0  0  0  0  0  0  0  0  0  0  0  0
   -9.0844    3.4102    9.5297 H   0  0  0  0  0  0  0  0  0  0  0  0
   -9.4834    3.5032   11.2603 H   0  0  0  0  0  0  0  0  0  0  0  0
  -14.1160   -0.7953   10.7192 H   0  0  0  0  0  0  0  0  0  0  0  0
  -17.0401    0.0839   14.0927 H   0  0  0  0  0  0  0  0  0  0  0  0
  -17.4890    1.1453   12.6951 H   0  0  0  0  0  0  0  0  0  0  0  0
  -18.8177   -1.4462   15.0068 H   0  0  0  0  0  0  0  0  0  0  0  0
  -20.1735   -1.0936   16.6507 H   0  0  0  0  0  0  0  0  0  0  0  0
  -27.7775   -4.7164   16.2221 H   0  0  0  0  0  0  0  0  0  0  0  0
  -30.0257   -3.4903   15.5217 H   0  0  0  0  0  0  0  0  0  0  0  0
  -29.6097   -0.9353   15.0506 H   0  0  0  0  0  0  0  0  0  0  0  0
  -24.4637   -1.4568   15.3203 H   0  0  0  0  0  0  0  0  0  0  0  0
  -22.4779   -2.3149   19.2405 H   0  0  0  0  0  0  0  0  0  0  0  0
  -20.7967   -2.2133   18.6728 H   0  0  0  0  0  0  0  0  0  0  0  0
  -22.2921    0.0868   19.7448 H   0  0  0  0  0  0  0  0  0  0  0  0
  -20.9237    0.2870   18.6277 H   0  0  0  0  0  0  0  0  0  0  0  0
  -23.8820   -0.2166   17.8850 H   0  0  0  0  0  0  0  0  0  0  0  0
  -22.6788    0.6516   16.9116 H   0  0  0  0  0  0  0  0  0  0  0  0
  -15.4260    3.0240   14.0985 H   0  0  0  0  0  0  0  0  0  0  0  0
  -13.7113    3.5965   12.9496 H   0  0  0  0  0  0  0  0  0  0  0  0
  1  2  1  0
  2  3  1  0
  2  4  1  0
  4  5  1  0
  5  6  2  0
  5  7  1  0
  7  8  2  0
  8  9  1  0
  9 10  1  0
 10 11  1  0
 11 12  1  0
 12 13  1  0
 13 14  1  0
 13 15  1  0
 15 16  2  0
 15 17  1  0
 17 18  1  0
 18 19  1  0
 19 20  2  0
 20 21  1  0
 21 22  2  0
 22 23  1  0
 23 24  2  0
 24 25  1  0
 25 26  2  0
 26 27  1  0
 22 28  1  0
 18 29  1  0
 29 30  1  0
 30 31  1  0
  9 32  2  0
 32 33  1  0
 32 34  1  0
 34 35  2  0
 35 36  1  0
 36  2  1  0
 35  7  1  0
 31 18  1  0
 28 19  1  0
 27 23  1  0
  1 37  1  0
  1 38  1  0
  1 39  1  0
  3 40  1  0
  3 41  1  0
  3 42  1  0
  8 43  1  0
 11 44  1  0
 11 45  1  0
 13 46  1  0
 17 47  1  0
 24 48  1  0
 25 49  1  0
 26 50  1  0
 28 51  1  0
 29 52  1  0
 29 53  1  0
 30 54  1  0
 30 55  1  0
 31 56  1  0
 31 57  1  0
 33 58  1  0
 34 59  1  0
M  END
>  <Energy>  (365) 
87.864910902668669

>  <compound_id>  (365) 
1023

>  <target_id>  (365) 
1

>  <reference_id>  (365) 
126

>  <inspiration_ids>  (365) 
[174, 126]

>  <energy_score>  (365) 
-38.09823560197603

>  <distance_score>  (365) 
2.0445283134069694

>  <path>  (365) 
/opt/xchem-fragalysis-2/maxwin/BulkDock/SCRATCH/505736/C1023-P126/C1023-P126.minimised.mol

>  <scratch_subdir>  (365) 
/opt/xchem-fragalysis-2/maxwin/BulkDock/SCRATCH/505736/C1023-P126

>  <fragmenstein_runtime>  (365) 
34.4067177772522

>  <fragmenstein_outcome>  (365) 
too moved

>  <fragmenstein_mode>  (365) 
expansion

>  <fragmenstein_error>  (365) 


$$$$
C2583-P174
     RDKit          3D

 50 54  0  0  0  0  0  0  0  0999 V2000
  -23.5643   -3.0964   12.8147 O   0  0  0  0  0  0  0  0  0  0  0  0
  -23.6014   -2.2126   13.5800 C   0  0  0  0  0  0  0  0  0  0  0  0
  -22.4734   -1.5930   14.4641 N   0  0  0  0  0  0  0  0  0  0  0  0
  -21.0902   -2.0021   14.6535 C   0  0  0  0  0  0  0  0  0  0  0  0
  -20.9864   -2.7670   15.9996 C   0  0  0  0  0  0  0  0  0  0  0  0
  -21.5594   -3.9244   16.2599 N   0  0  0  0  0  0  0  0  0  0  0  0
  -21.8848   -3.9210   17.5998 N   0  0  0  0  0  0  0  0  0  0  0  0
  -21.5734   -2.7203   18.0325 C   0  0  0  0  0  0  0  0  0  0  0  0
  -22.2843   -1.9551   18.9905 C   0  0  0  0  0  0  0  0  0  0  0  0
  -22.3092   -0.5765   19.0505 C   0  0  0  0  0  0  0  0  0  0  0  0
  -23.1894   -0.1100   20.0598 C   0  0  0  0  0  0  0  0  0  0  0  0
  -23.7983   -1.1451   20.7328 C   0  0  0  0  0  0  0  0  0  0  0  0
  -23.2876   -2.6717   20.1699 S   0  0  0  0  0  0  0  0  0  0  0  0
  -20.6446   -2.1800   17.1845 N   0  0  0  0  0  0  0  0  0  0  0  0
  -20.1191   -0.8051   14.4941 C   0  0  0  0  0  0  0  0  0  0  0  0
  -19.1539   -1.7707   13.8063 C   0  0  0  0  0  0  0  0  0  0  0  0
  -20.3722   -2.6688   13.4788 C   0  0  0  0  0  0  0  0  0  0  0  0
  -24.8719   -1.3648   13.8633 C   0  0  0  0  0  0  0  0  0  0  0  0
  -26.3437   -2.1545   13.2599 Cl  0  0  0  0  0  0  0  0  0  0  0  0
  -25.0650   -0.9187   15.6430 S   0  0  0  0  0  0  0  0  0  0  0  0
  -24.9877   -2.5930   16.4105 C   0  0  0  0  0  0  0  0  0  0  0  0
  -25.8503   -2.7326   17.6704 C   0  0  0  0  0  0  0  0  0  0  0  0
  -27.2601   -2.8454   17.2453 C   0  0  0  0  0  0  0  0  0  0  0  0
  -27.8424   -3.9382   16.7854 N   0  0  0  0  0  0  0  0  0  0  0  0
  -28.8645   -3.5457   15.9454 N   0  0  0  0  0  0  0  0  0  0  0  0
  -28.8940   -2.2372   15.9753 C   0  0  0  0  0  0  0  0  0  0  0  0
  -29.6422   -1.3050   15.1960 C   0  0  0  0  0  0  0  0  0  0  0  0
  -29.5464   -0.0151   15.3999 N   0  0  0  0  0  0  0  0  0  0  0  0
  -28.7229    0.4191   16.4254 C   0  0  0  0  0  0  0  0  0  0  0  0
  -27.9585   -0.4001   17.1683 C   0  0  0  0  0  0  0  0  0  0  0  0
  -28.0155   -1.7555   16.8981 N   0  0  0  0  0  0  0  0  0  0  0  0
  -22.8345   -0.7801   14.9554 H   0  0  0  0  0  0  0  0  0  0  0  0
  -21.7548    0.0844   18.3949 H   0  0  0  0  0  0  0  0  0  0  0  0
  -23.3801    0.9334   20.2830 H   0  0  0  0  0  0  0  0  0  0  0  0
  -24.5094   -1.0793   21.5459 H   0  0  0  0  0  0  0  0  0  0  0  0
  -20.2163   -1.2712   17.2914 H   0  0  0  0  0  0  0  0  0  0  0  0
  -20.4842   -0.0151   13.8244 H   0  0  0  0  0  0  0  0  0  0  0  0
  -19.7334   -0.3217   15.3938 H   0  0  0  0  0  0  0  0  0  0  0  0
  -18.4290   -2.2250   14.4905 H   0  0  0  0  0  0  0  0  0  0  0  0
  -18.6273   -1.3452   12.9490 H   0  0  0  0  0  0  0  0  0  0  0  0
  -20.8056   -2.4592   12.4936 H   0  0  0  0  0  0  0  0  0  0  0  0
  -20.1902   -3.7449   13.5538 H   0  0  0  0  0  0  0  0  0  0  0  0
  -24.7655   -0.4313   13.3016 H   0  0  0  0  0  0  0  0  0  0  0  0
  -25.2531   -3.3622   15.6777 H   0  0  0  0  0  0  0  0  0  0  0  0
  -23.9493   -2.7528   16.6785 H   0  0  0  0  0  0  0  0  0  0  0  0
  -25.5714   -3.6530   18.1958 H   0  0  0  0  0  0  0  0  0  0  0  0
  -25.7012   -1.8985   18.3618 H   0  0  0  0  0  0  0  0  0  0  0  0
  -30.3042   -1.6820   14.4006 H   0  0  0  0  0  0  0  0  0  0  0  0
  -28.6999    1.4940   16.5880 H   0  0  0  0  0  0  0  0  0  0  0  0
  -27.2805   -0.0520   17.9349 H   0  0  0  0  0  0  0  0  0  0  0  0
  1  2  2  0
  2  3  1  0
  3  4  1  0
  4  5  1  0
  5  6  2  0
  6  7  1  0
  7  8  2  0
  8  9  1  0
  9 10  2  0
 10 11  1  0
 11 12  2  0
 12 13  1  0
  8 14  1  0
  4 15  1  0
 15 16  1  0
 16 17  1  0
  2 18  1  0
 18 19  1  0
 18 20  1  0
 20 21  1  0
 21 22  1  0
 22 23  1  0
 23 24  2  0
 24 25  1  0
 25 26  2  0
 26 27  1  0
 27 28  2  0
 28 29  1  0
 29 30  2  0
 30 31  1  0
 17  4  1  0
 31 23  1  0
 14  5  1  0
 31 26  1  0
 13  9  1  0
  3 32  1  0
 10 33  1  0
 11 34  1  0
 12 35  1  0
 14 36  1  0
 15 37  1  0
 15 38  1  0
 16 39  1  0
 16 40  1  0
 17 41  1  0
 17 42  1  0
 18 43  1  0
 21 44  1  0
 21 45  1  0
 22 46  1  0
 22 47  1  0
 27 48  1  0
 29 49  1  0
 30 50  1  0
M  END
>  <Energy>  (366) 
105.3250136889007

>  <compound_id>  (366) 
2583

>  <target_id>  (366) 
1

>  <reference_id>  (366) 
174

>  <inspiration_ids>  (366) 
[174, 137]

>  <energy_score>  (366) 
-46.225469884534974

>  <distance_score>  (366) 
2.10481553262518

>  <path>  (366) 
/opt/xchem-fragalysis-2/maxwin/BulkDock/SCRATCH/505736/C2583-P174/C2583-P174.minimised.mol

>  <scratch_subdir>  (366) 
/opt/xchem-fragalysis-2/maxwin/BulkDock/SCRATCH/505736/C2583-P174

>  <fragmenstein_runtime>  (366) 
6.923048257827759

>  <fragmenstein_outcome>  (366) 
too moved

>  <fragmenstein_mode>  (366) 
expansion

>  <fragmenstein_error>  (366) 


$$$$
C2583-P137
     RDKit          3D

 50 54  0  0  0  0  0  0  0  0999 V2000
  -23.4684   -2.9504   12.7983 O   0  0  0  0  0  0  0  0  0  0  0  0
  -23.5162   -2.1056   13.6056 C   0  0  0  0  0  0  0  0  0  0  0  0
  -22.3892   -1.4928   14.4951 N   0  0  0  0  0  0  0  0  0  0  0  0
  -20.9895   -1.8659   14.6364 C   0  0  0  0  0  0  0  0  0  0  0  0
  -20.8041   -2.6023   15.9885 C   0  0  0  0  0  0  0  0  0  0  0  0
  -21.3035   -3.7855   16.2801 N   0  0  0  0  0  0  0  0  0  0  0  0
  -21.6315   -3.7584   17.6170 N   0  0  0  0  0  0  0  0  0  0  0  0
  -21.3624   -2.5359   18.0228 C   0  0  0  0  0  0  0  0  0  0  0  0
  -22.0883   -1.7812   18.9775 C   0  0  0  0  0  0  0  0  0  0  0  0
  -22.0427   -0.4108   19.1238 C   0  0  0  0  0  0  0  0  0  0  0  0
  -22.9933    0.0480   20.0728 C   0  0  0  0  0  0  0  0  0  0  0  0
  -23.7125   -0.9856   20.6292 C   0  0  0  0  0  0  0  0  0  0  0  0
  -23.2247   -2.5036   20.0290 S   0  0  0  0  0  0  0  0  0  0  0  0
  -20.4624   -1.9789   17.1555 N   0  0  0  0  0  0  0  0  0  0  0  0
  -20.0552   -0.6510   14.4145 C   0  0  0  0  0  0  0  0  0  0  0  0
  -19.0878   -1.6162   13.7283 C   0  0  0  0  0  0  0  0  0  0  0  0
  -20.3002   -2.5390   13.4471 C   0  0  0  0  0  0  0  0  0  0  0  0
  -24.8011   -1.3016   13.9420 C   0  0  0  0  0  0  0  0  0  0  0  0
  -26.2636   -2.0980   13.3282 Cl  0  0  0  0  0  0  0  0  0  0  0  0
  -24.9726   -0.9182   15.7375 S   0  0  0  0  0  0  0  0  0  0  0  0
  -24.9173   -2.6161   16.4526 C   0  0  0  0  0  0  0  0  0  0  0  0
  -25.8257   -2.7833   17.6774 C   0  0  0  0  0  0  0  0  0  0  0  0
  -27.2225   -2.8858   17.2089 C   0  0  0  0  0  0  0  0  0  0  0  0
  -27.7998   -3.9718   16.7277 N   0  0  0  0  0  0  0  0  0  0  0  0
  -28.8197   -3.5684   15.8904 N   0  0  0  0  0  0  0  0  0  0  0  0
  -28.8510   -2.2606   15.9388 C   0  0  0  0  0  0  0  0  0  0  0  0
  -29.6008   -1.3191   15.1723 C   0  0  0  0  0  0  0  0  0  0  0  0
  -29.5082   -0.0320   15.3946 N   0  0  0  0  0  0  0  0  0  0  0  0
  -28.6863    0.3891   16.4268 C   0  0  0  0  0  0  0  0  0  0  0  0
  -27.9213   -0.4392   17.1589 C   0  0  0  0  0  0  0  0  0  0  0  0
  -27.9742   -1.7908   16.8692 N   0  0  0  0  0  0  0  0  0  0  0  0
  -22.7959   -0.8300   15.1508 H   0  0  0  0  0  0  0  0  0  0  0  0
  -21.3924    0.2540   18.5669 H   0  0  0  0  0  0  0  0  0  0  0  0
  -23.1503    1.0870   20.3387 H   0  0  0  0  0  0  0  0  0  0  0  0
  -24.4897   -0.9234   21.3796 H   0  0  0  0  0  0  0  0  0  0  0  0
  -20.0647   -1.0524   17.2388 H   0  0  0  0  0  0  0  0  0  0  0  0
  -20.4587    0.1097   13.7329 H   0  0  0  0  0  0  0  0  0  0  0  0
  -19.6563   -0.1324   15.2887 H   0  0  0  0  0  0  0  0  0  0  0  0
  -18.3436   -2.0416   14.4112 H   0  0  0  0  0  0  0  0  0  0  0  0
  -18.5842   -1.2045   12.8506 H   0  0  0  0  0  0  0  0  0  0  0  0
  -20.7649   -2.3478   12.4726 H   0  0  0  0  0  0  0  0  0  0  0  0
  -20.0993   -3.6111   13.5298 H   0  0  0  0  0  0  0  0  0  0  0  0
  -24.7232   -0.3459   13.4137 H   0  0  0  0  0  0  0  0  0  0  0  0
  -25.1599   -3.3630   15.6896 H   0  0  0  0  0  0  0  0  0  0  0  0
  -23.8863   -2.7903   16.7509 H   0  0  0  0  0  0  0  0  0  0  0  0
  -25.5633   -3.7140   18.1936 H   0  0  0  0  0  0  0  0  0  0  0  0
  -25.7040   -1.9645   18.3919 H   0  0  0  0  0  0  0  0  0  0  0  0
  -30.2615   -1.6862   14.3712 H   0  0  0  0  0  0  0  0  0  0  0  0
  -28.6664    1.4615   16.6056 H   0  0  0  0  0  0  0  0  0  0  0  0
  -27.2467   -0.1002   17.9326 H   0  0  0  0  0  0  0  0  0  0  0  0
  1  2  2  0
  2  3  1  0
  3  4  1  0
  4  5  1  0
  5  6  2  0
  6  7  1  0
  7  8  2  0
  8  9  1  0
  9 10  2  0
 10 11  1  0
 11 12  2  0
 12 13  1  0
  8 14  1  0
  4 15  1  0
 15 16  1  0
 16 17  1  0
  2 18  1  0
 18 19  1  0
 18 20  1  0
 20 21  1  0
 21 22  1  0
 22 23  1  0
 23 24  2  0
 24 25  1  0
 25 26  2  0
 26 27  1  0
 27 28  2  0
 28 29  1  0
 29 30  2  0
 30 31  1  0
 17  4  1  0
 31 23  1  0
 14  5  1  0
 31 26  1  0
 13  9  1  0
  3 32  1  0
 10 33  1  0
 11 34  1  0
 12 35  1  0
 14 36  1  0
 15 37  1  0
 15 38  1  0
 16 39  1  0
 16 40  1  0
 17 41  1  0
 17 42  1  0
 18 43  1  0
 21 44  1  0
 21 45  1  0
 22 46  1  0
 22 47  1  0
 27 48  1  0
 29 49  1  0
 30 50  1  0
M  END
>  <Energy>  (367) 
103.92214509762395

>  <compound_id>  (367) 
2583

>  <target_id>  (367) 
1

>  <reference_id>  (367) 
137

>  <inspiration_ids>  (367) 
[174, 137]

>  <energy_score>  (367) 
-47.62833847581105

>  <distance_score>  (367) 
2.1154454996783203

>  <path>  (367) 
/opt/xchem-fragalysis-2/maxwin/BulkDock/SCRATCH/505736/C2583-P137/C2583-P137.minimised.mol

>  <scratch_subdir>  (367) 
/opt/xchem-fragalysis-2/maxwin/BulkDock/SCRATCH/505736/C2583-P137

>  <fragmenstein_runtime>  (367) 
5.594764709472656

>  <fragmenstein_outcome>  (367) 
too moved

>  <fragmenstein_mode>  (367) 
expansion

>  <fragmenstein_error>  (367) 


$$$$
C2586-P174
     RDKit          3D

 72 76  0  0  0  0  0  0  0  0999 V2000
  -27.5096    4.3760   19.5512 O   0  0  0  0  0  0  0  0  0  0  0  0
  -26.6973    3.5797   19.8400 C   0  0  0  0  0  0  0  0  0  0  0  0
  -26.7136    2.1312   19.7200 N   0  0  0  0  0  0  0  0  0  0  0  0
  -27.7598    1.2315   19.3030 C   0  0  0  0  0  0  0  0  0  0  0  0
  -28.1941    1.4248   17.8545 C   0  0  0  0  0  0  0  0  0  0  0  0
  -27.3125    0.7769   16.9106 N   0  0  0  0  0  0  0  0  0  0  0  0
  -27.5141   -0.4217   16.3012 C   0  0  0  0  0  0  0  0  0  0  0  0
  -26.5362   -0.6450   15.4522 N   0  0  0  0  0  0  0  0  0  0  0  0
  -25.6731    0.4207   15.5164 N   0  0  0  0  0  0  0  0  0  0  0  0
  -26.1616    1.2755   16.3879 C   0  0  0  0  0  0  0  0  0  0  0  0
  -25.4079    3.7460   20.5170 N   0  0  0  0  0  0  0  0  0  0  0  0
  -24.2932    3.9799   19.4805 C   0  0  0  0  0  0  0  0  0  0  0  0
  -22.9100    3.3214   19.8165 C   0  0  0  0  0  0  0  0  0  0  0  0
  -23.0086    2.3270   20.8944 N   0  0  0  0  0  0  0  0  0  0  0  0
  -22.5156    0.9922   20.5530 C   0  0  0  0  0  0  0  0  0  0  0  0
  -22.9945   -0.1381   21.8939 S   0  0  0  0  0  0  0  0  0  0  0  0
  -20.7374    1.0843   20.5013 Cl  0  0  0  0  0  0  0  0  0  0  0  0
  -23.1518    0.4418   19.2051 C   0  0  0  0  0  0  0  0  0  0  0  0
  -24.3215    0.6482   19.0108 O   0  0  0  0  0  0  0  0  0  0  0  0
  -22.1765   -0.2689   18.4123 N   0  0  0  0  0  0  0  0  0  0  0  0
  -22.2770   -0.8753   17.0881 C   0  0  0  0  0  0  0  0  0  0  0  0
  -23.2075   -2.1178   17.1254 C   0  0  0  0  0  0  0  0  0  0  0  0
  -22.9580   -3.2122   17.8148 N   0  0  0  0  0  0  0  0  0  0  0  0
  -23.9968   -4.0868   17.5900 N   0  0  0  0  0  0  0  0  0  0  0  0
  -24.8417   -3.5180   16.7523 C   0  0  0  0  0  0  0  0  0  0  0  0
  -26.0300   -4.1026   16.2089 C   0  0  0  0  0  0  0  0  0  0  0  0
  -26.6654   -3.7811   15.0228 C   0  0  0  0  0  0  0  0  0  0  0  0
  -27.8417   -4.5551   14.7995 C   0  0  0  0  0  0  0  0  0  0  0  0
  -28.0590   -5.4577   15.8145 C   0  0  0  0  0  0  0  0  0  0  0  0
  -26.8503   -5.3699   17.0211 S   0  0  0  0  0  0  0  0  0  0  0  0
  -24.3980   -2.2546   16.4712 N   0  0  0  0  0  0  0  0  0  0  0  0
  -22.5064    0.1477   15.9439 C   0  0  0  0  0  0  0  0  0  0  0  0
  -20.9764    0.2381   15.7933 C   0  0  0  0  0  0  0  0  0  0  0  0
  -20.9021   -1.1670   16.4250 C   0  0  0  0  0  0  0  0  0  0  0  0
  -24.7850    4.9648   21.1469 C   0  0  0  0  0  0  0  0  0  0  0  0
  -25.4156    5.1065   22.5339 C   0  0  0  0  0  0  0  0  0  0  0  0
  -24.8114    4.5070   23.6497 C   0  0  0  0  0  0  0  0  0  0  0  0
  -25.3957    4.6147   24.9125 C   0  0  0  0  0  0  0  0  0  0  0  0
  -26.5918    5.3127   25.0708 C   0  0  0  0  0  0  0  0  0  0  0  0
  -27.2095    5.8974   23.9664 C   0  0  0  0  0  0  0  0  0  0  0  0
  -26.6278    5.7916   22.7023 C   0  0  0  0  0  0  0  0  0  0  0  0
  -25.8751    1.7538   20.1446 H   0  0  0  0  0  0  0  0  0  0  0  0
  -27.4193    0.2085   19.4939 H   0  0  0  0  0  0  0  0  0  0  0  0
  -28.6139    1.4387   19.9568 H   0  0  0  0  0  0  0  0  0  0  0  0
  -28.2590    2.4831   17.5785 H   0  0  0  0  0  0  0  0  0  0  0  0
  -29.1885    0.9854   17.7105 H   0  0  0  0  0  0  0  0  0  0  0  0
  -28.3567   -1.0722   16.4929 H   0  0  0  0  0  0  0  0  0  0  0  0
  -25.7326    2.2268   16.6670 H   0  0  0  0  0  0  0  0  0  0  0  0
  -24.2167    4.9894   19.0400 H   0  0  0  0  0  0  0  0  0  0  0  0
  -24.6379    3.4044   18.6065 H   0  0  0  0  0  0  0  0  0  0  0  0
  -22.4802    2.9262   18.8883 H   0  0  0  0  0  0  0  0  0  0  0  0
  -22.2111    4.1001   20.1438 H   0  0  0  0  0  0  0  0  0  0  0  0
  -23.9978    2.2160   21.1347 H   0  0  0  0  0  0  0  0  0  0  0  0
  -22.2491    0.4647   22.8290 H   0  0  0  0  0  0  0  0  0  0  0  0
  -21.2618   -0.1712   18.8466 H   0  0  0  0  0  0  0  0  0  0  0  0
  -26.3078   -3.0244   14.3342 H   0  0  0  0  0  0  0  0  0  0  0  0
  -28.4856   -4.4606   13.9337 H   0  0  0  0  0  0  0  0  0  0  0  0
  -28.8621   -6.1759   15.9055 H   0  0  0  0  0  0  0  0  0  0  0  0
  -24.8794   -1.5520   15.9171 H   0  0  0  0  0  0  0  0  0  0  0  0
  -22.9927    1.0892   16.2147 H   0  0  0  0  0  0  0  0  0  0  0  0
  -22.9941   -0.2533   15.0476 H   0  0  0  0  0  0  0  0  0  0  0  0
  -20.5264    1.0308   16.4007 H   0  0  0  0  0  0  0  0  0  0  0  0
  -20.6022    0.3193   14.7699 H   0  0  0  0  0  0  0  0  0  0  0  0
  -20.0641   -1.3462   17.1030 H   0  0  0  0  0  0  0  0  0  0  0  0
  -20.9146   -1.9742   15.6812 H   0  0  0  0  0  0  0  0  0  0  0  0
  -25.0682    5.8816   20.6045 H   0  0  0  0  0  0  0  0  0  0  0  0
  -23.7077    4.9525   21.3529 H   0  0  0  0  0  0  0  0  0  0  0  0
  -23.8855    3.9466   23.5386 H   0  0  0  0  0  0  0  0  0  0  0  0
  -24.9220    4.1471   25.7716 H   0  0  0  0  0  0  0  0  0  0  0  0
  -27.0496    5.3911   26.0532 H   0  0  0  0  0  0  0  0  0  0  0  0
  -28.1509    6.4272   24.0861 H   0  0  0  0  0  0  0  0  0  0  0  0
  -27.1334    6.2310   21.8442 H   0  0  0  0  0  0  0  0  0  0  0  0
  1  2  2  0
  2  3  1  0
  3  4  1  0
  4  5  1  0
  5  6  1  0
  6  7  1  0
  7  8  2  0
  8  9  1  0
  9 10  2  0
  2 11  1  0
 11 12  1  0
 12 13  1  0
 13 14  1  0
 14 15  1  0
 15 16  1  0
 15 17  1  0
 15 18  1  0
 18 19  2  0
 18 20  1  0
 20 21  1  0
 21 22  1  0
 22 23  2  0
 23 24  1  0
 24 25  2  0
 25 26  1  0
 26 27  2  0
 27 28  1  0
 28 29  2  0
 29 30  1  0
 25 31  1  0
 21 32  1  0
 32 33  1  0
 33 34  1  0
 11 35  1  0
 35 36  1  0
 36 37  2  0
 37 38  1  0
 38 39  2  0
 39 40  1  0
 40 41  2  0
 10  6  1  0
 34 21  1  0
 41 36  1  0
 31 22  1  0
 30 26  1  0
  3 42  1  0
  4 43  1  0
  4 44  1  0
  5 45  1  0
  5 46  1  0
  7 47  1  0
 10 48  1  0
 12 49  1  0
 12 50  1  0
 13 51  1  0
 13 52  1  0
 14 53  1  0
 16 54  1  0
 20 55  1  0
 27 56  1  0
 28 57  1  0
 29 58  1  0
 31 59  1  0
 32 60  1  0
 32 61  1  0
 33 62  1  0
 33 63  1  0
 34 64  1  0
 34 65  1  0
 35 66  1  0
 35 67  1  0
 37 68  1  0
 38 69  1  0
 39 70  1  0
 40 71  1  0
 41 72  1  0
M  END
>  <Energy>  (368) 
58.360344114739249

>  <compound_id>  (368) 
2586

>  <target_id>  (368) 
1

>  <reference_id>  (368) 
174

>  <inspiration_ids>  (368) 
[174, 176]

>  <energy_score>  (368) 
-7.58388479675363

>  <distance_score>  (368) 
2.580432552536131

>  <path>  (368) 
/opt/xchem-fragalysis-2/maxwin/BulkDock/SCRATCH/505736/C2586-P174/C2586-P174.minimised.mol

>  <scratch_subdir>  (368) 
/opt/xchem-fragalysis-2/maxwin/BulkDock/SCRATCH/505736/C2586-P174

>  <fragmenstein_runtime>  (368) 
23.97880458831787

>  <fragmenstein_outcome>  (368) 
too moved

>  <fragmenstein_mode>  (368) 
expansion

>  <fragmenstein_error>  (368) 


$$$$
C2586-P176
     RDKit          3D

 72 76  0  0  0  0  0  0  0  0999 V2000
  -24.9968    3.7697   20.5022 O   0  0  0  0  0  0  0  0  0  0  0  0
  -24.3555    2.8003   20.6634 C   0  0  0  0  0  0  0  0  0  0  0  0
  -24.7418    1.4026   20.6391 N   0  0  0  0  0  0  0  0  0  0  0  0
  -26.0369    0.7841   20.5059 C   0  0  0  0  0  0  0  0  0  0  0  0
  -26.8133    1.2256   19.2687 C   0  0  0  0  0  0  0  0  0  0  0  0
  -26.2630    0.7251   18.0298 N   0  0  0  0  0  0  0  0  0  0  0  0
  -26.6897   -0.3552   17.3229 C   0  0  0  0  0  0  0  0  0  0  0  0
  -26.0124   -0.4330   16.1984 N   0  0  0  0  0  0  0  0  0  0  0  0
  -25.1146    0.6060   16.1769 N   0  0  0  0  0  0  0  0  0  0  0  0
  -25.2903    1.3050   17.2765 C   0  0  0  0  0  0  0  0  0  0  0  0
  -22.9491    2.6489   21.0437 N   0  0  0  0  0  0  0  0  0  0  0  0
  -22.0789    2.5913   19.8007 C   0  0  0  0  0  0  0  0  0  0  0  0
  -20.6941    1.8554   19.8077 C   0  0  0  0  0  0  0  0  0  0  0  0
  -20.3894    0.7975   20.7676 N   0  0  0  0  0  0  0  0  0  0  0  0
  -21.1068   -0.4662   20.7422 C   0  0  0  0  0  0  0  0  0  0  0  0
  -19.8999   -1.8138   20.9585 S   0  0  0  0  0  0  0  0  0  0  0  0
  -22.1117   -0.4524   22.2139 Cl  0  0  0  0  0  0  0  0  0  0  0  0
  -21.9935   -0.7333   19.4722 C   0  0  0  0  0  0  0  0  0  0  0  0
  -23.1893   -0.7105   19.5796 O   0  0  0  0  0  0  0  0  0  0  0  0
  -21.1557   -0.9803   18.3199 N   0  0  0  0  0  0  0  0  0  0  0  0
  -21.4954   -1.3705   16.9612 C   0  0  0  0  0  0  0  0  0  0  0  0
  -22.6431   -2.4381   16.9926 C   0  0  0  0  0  0  0  0  0  0  0  0
  -22.5564   -3.5691   17.6640 N   0  0  0  0  0  0  0  0  0  0  0  0
  -23.7404   -4.2440   17.5000 N   0  0  0  0  0  0  0  0  0  0  0  0
  -24.5191   -3.5258   16.7136 C   0  0  0  0  0  0  0  0  0  0  0  0
  -25.8139   -3.9005   16.2267 C   0  0  0  0  0  0  0  0  0  0  0  0
  -26.5063   -3.3671   15.1538 C   0  0  0  0  0  0  0  0  0  0  0  0
  -27.7768   -3.9835   14.9537 C   0  0  0  0  0  0  0  0  0  0  0  0
  -28.0115   -4.9797   15.8725 C   0  0  0  0  0  0  0  0  0  0  0  0
  -26.7088   -5.1652   16.9639 S   0  0  0  0  0  0  0  0  0  0  0  0
  -23.8839   -2.3447   16.4286 N   0  0  0  0  0  0  0  0  0  0  0  0
  -21.6589   -0.1694   15.9994 C   0  0  0  0  0  0  0  0  0  0  0  0
  -20.8632   -0.9575   14.9464 C   0  0  0  0  0  0  0  0  0  0  0  0
  -20.2906   -1.8123   16.0913 C   0  0  0  0  0  0  0  0  0  0  0  0
  -21.9222    3.6910   21.4573 C   0  0  0  0  0  0  0  0  0  0  0  0
  -21.3213    3.2701   22.7920 C   0  0  0  0  0  0  0  0  0  0  0  0
  -19.9332    3.2226   22.9760 C   0  0  0  0  0  0  0  0  0  0  0  0
  -19.4038    2.6566   24.1339 C   0  0  0  0  0  0  0  0  0  0  0  0
  -20.2503    2.1770   25.1294 C   0  0  0  0  0  0  0  0  0  0  0  0
  -21.6290    2.2822   24.9918 C   0  0  0  0  0  0  0  0  0  0  0  0
  -22.1623    2.8310   23.8301 C   0  0  0  0  0  0  0  0  0  0  0  0
  -23.9429    0.8320   20.9029 H   0  0  0  0  0  0  0  0  0  0  0  0
  -25.8878   -0.3008   20.5133 H   0  0  0  0  0  0  0  0  0  0  0  0
  -26.6047    1.0588   21.4010 H   0  0  0  0  0  0  0  0  0  0  0  0
  -26.8652    2.3170   19.1894 H   0  0  0  0  0  0  0  0  0  0  0  0
  -27.8436    0.8560   19.3341 H   0  0  0  0  0  0  0  0  0  0  0  0
  -27.4710   -1.0286   17.6481 H   0  0  0  0  0  0  0  0  0  0  0  0
  -24.7633    2.2051   17.5601 H   0  0  0  0  0  0  0  0  0  0  0  0
  -22.0832    3.5284   19.2119 H   0  0  0  0  0  0  0  0  0  0  0  0
  -22.6728    1.9558   19.1248 H   0  0  0  0  0  0  0  0  0  0  0  0
  -20.5097    1.5058   18.7881 H   0  0  0  0  0  0  0  0  0  0  0  0
  -19.9149    2.6144   19.9492 H   0  0  0  0  0  0  0  0  0  0  0  0
  -20.5180    1.1473   21.7174 H   0  0  0  0  0  0  0  0  0  0  0  0
  -19.5617   -1.4503   22.2025 H   0  0  0  0  0  0  0  0  0  0  0  0
  -20.1759   -0.8365   18.5829 H   0  0  0  0  0  0  0  0  0  0  0  0
  -26.1282   -2.5644   14.5313 H   0  0  0  0  0  0  0  0  0  0  0  0
  -28.4760   -3.7122   14.1724 H   0  0  0  0  0  0  0  0  0  0  0  0
  -28.8820   -5.6155   15.9562 H   0  0  0  0  0  0  0  0  0  0  0  0
  -24.2942   -1.5419   15.9623 H   0  0  0  0  0  0  0  0  0  0  0  0
  -21.1485    0.7447   16.3281 H   0  0  0  0  0  0  0  0  0  0  0  0
  -22.6685    0.1038   15.6923 H   0  0  0  0  0  0  0  0  0  0  0  0
  -20.1315   -0.3800   14.3756 H   0  0  0  0  0  0  0  0  0  0  0  0
  -21.4930   -1.5213   14.2488 H   0  0  0  0  0  0  0  0  0  0  0  0
  -19.3133   -1.4699   16.4443 H   0  0  0  0  0  0  0  0  0  0  0  0
  -20.2131   -2.8808   15.8676 H   0  0  0  0  0  0  0  0  0  0  0  0
  -22.5412    4.5725   21.6922 H   0  0  0  0  0  0  0  0  0  0  0  0
  -21.1528    4.1376   20.8042 H   0  0  0  0  0  0  0  0  0  0  0  0
  -19.2468    3.5638   22.2031 H   0  0  0  0  0  0  0  0  0  0  0  0
  -18.3265    2.5756   24.2617 H   0  0  0  0  0  0  0  0  0  0  0  0
  -19.8247    1.7428   26.0272 H   0  0  0  0  0  0  0  0  0  0  0  0
  -22.2869    1.9140   25.7734 H   0  0  0  0  0  0  0  0  0  0  0  0
  -23.2438    2.8650   23.7103 H   0  0  0  0  0  0  0  0  0  0  0  0
  1  2  2  0
  2  3  1  0
  3  4  1  0
  4  5  1  0
  5  6  1  0
  6  7  1  0
  7  8  2  0
  8  9  1  0
  9 10  2  0
  2 11  1  0
 11 12  1  0
 12 13  1  0
 13 14  1  0
 14 15  1  0
 15 16  1  0
 15 17  1  0
 15 18  1  0
 18 19  2  0
 18 20  1  0
 20 21  1  0
 21 22  1  0
 22 23  2  0
 23 24  1  0
 24 25  2  0
 25 26  1  0
 26 27  2  0
 27 28  1  0
 28 29  2  0
 29 30  1  0
 25 31  1  0
 21 32  1  0
 32 33  1  0
 33 34  1  0
 11 35  1  0
 35 36  1  0
 36 37  2  0
 37 38  1  0
 38 39  2  0
 39 40  1  0
 40 41  2  0
 10  6  1  0
 34 21  1  0
 41 36  1  0
 31 22  1  0
 30 26  1  0
  3 42  1  0
  4 43  1  0
  4 44  1  0
  5 45  1  0
  5 46  1  0
  7 47  1  0
 10 48  1  0
 12 49  1  0
 12 50  1  0
 13 51  1  0
 13 52  1  0
 14 53  1  0
 16 54  1  0
 20 55  1  0
 27 56  1  0
 28 57  1  0
 29 58  1  0
 31 59  1  0
 32 60  1  0
 32 61  1  0
 33 62  1  0
 33 63  1  0
 34 64  1  0
 34 65  1  0
 35 66  1  0
 35 67  1  0
 37 68  1  0
 38 69  1  0
 39 70  1  0
 40 71  1  0
 41 72  1  0
M  END
>  <Energy>  (369) 
72.84832228954275

>  <compound_id>  (369) 
2586

>  <target_id>  (369) 
1

>  <reference_id>  (369) 
176

>  <inspiration_ids>  (369) 
[174, 176]

>  <energy_score>  (369) 
6.904093378049012

>  <distance_score>  (369) 
2.17296502679266

>  <path>  (369) 
/opt/xchem-fragalysis-2/maxwin/BulkDock/SCRATCH/505736/C2586-P176/C2586-P176.minimised.mol

>  <scratch_subdir>  (369) 
/opt/xchem-fragalysis-2/maxwin/BulkDock/SCRATCH/505736/C2586-P176

>  <fragmenstein_runtime>  (369) 
17.20928978919983

>  <fragmenstein_outcome>  (369) 
too moved

>  <fragmenstein_mode>  (369) 
expansion

>  <fragmenstein_error>  (369) 


$$$$
C2586-P174
     RDKit          3D

 72 76  0  0  0  0  0  0  0  0999 V2000
  -22.6130   -3.8061   17.5225 O   0  0  0  0  0  0  0  0  0  0  0  0
  -22.6032   -2.6345   17.4184 C   0  0  0  0  0  0  0  0  0  0  0  0
  -21.5765   -1.7427   16.9182 N   0  0  0  0  0  0  0  0  0  0  0  0
  -20.2262   -2.0061   16.4862 C   0  0  0  0  0  0  0  0  0  0  0  0
  -20.1489   -2.9211   15.2610 C   0  0  0  0  0  0  0  0  0  0  0  0
  -20.9981   -2.5462   14.1556 N   0  0  0  0  0  0  0  0  0  0  0  0
  -21.7120   -3.4009   13.3733 C   0  0  0  0  0  0  0  0  0  0  0  0
  -22.4413   -2.7033   12.5305 N   0  0  0  0  0  0  0  0  0  0  0  0
  -22.1684   -1.3712   12.7414 N   0  0  0  0  0  0  0  0  0  0  0  0
  -21.2662   -1.2960   13.6931 C   0  0  0  0  0  0  0  0  0  0  0  0
  -23.6489   -1.6485   17.7036 N   0  0  0  0  0  0  0  0  0  0  0  0
  -24.4985   -1.3902   16.4304 C   0  0  0  0  0  0  0  0  0  0  0  0
  -24.7171   -2.5251   15.3715 C   0  0  0  0  0  0  0  0  0  0  0  0
  -24.8904   -1.9283   14.0290 N   0  0  0  0  0  0  0  0  0  0  0  0
  -25.8764   -2.6098   13.1628 C   0  0  0  0  0  0  0  0  0  0  0  0
  -25.5692   -4.3808   12.9346 S   0  0  0  0  0  0  0  0  0  0  0  0
  -27.5041   -2.3091   13.8449 Cl  0  0  0  0  0  0  0  0  0  0  0  0
  -25.9173   -1.8965   11.7197 C   0  0  0  0  0  0  0  0  0  0  0  0
  -26.4443   -2.4481   10.7882 O   0  0  0  0  0  0  0  0  0  0  0  0
  -25.3067   -0.5876   11.8189 N   0  0  0  0  0  0  0  0  0  0  0  0
  -25.0536    0.4298   10.8034 C   0  0  0  0  0  0  0  0  0  0  0  0
  -26.3752    0.8604   10.0859 C   0  0  0  0  0  0  0  0  0  0  0  0
  -26.7987    2.0925    9.9145 N   0  0  0  0  0  0  0  0  0  0  0  0
  -27.9921    2.0298    9.2255 N   0  0  0  0  0  0  0  0  0  0  0  0
  -28.2719    0.7616    8.9947 C   0  0  0  0  0  0  0  0  0  0  0  0
  -29.4223    0.2453    8.3139 C   0  0  0  0  0  0  0  0  0  0  0  0
  -29.7502   -1.0792    8.0823 C   0  0  0  0  0  0  0  0  0  0  0  0
  -30.9757   -1.2254    7.3657 C   0  0  0  0  0  0  0  0  0  0  0  0
  -31.5472   -0.0092    7.0718 C   0  0  0  0  0  0  0  0  0  0  0  0
  -30.6126    1.2950    7.6594 S   0  0  0  0  0  0  0  0  0  0  0  0
  -27.2691   -0.0048    9.5182 N   0  0  0  0  0  0  0  0  0  0  0  0
  -24.1541    1.5954   11.2976 C   0  0  0  0  0  0  0  0  0  0  0  0
  -23.3916    1.5111    9.9615 C   0  0  0  0  0  0  0  0  0  0  0  0
  -23.9053    0.0648    9.8229 C   0  0  0  0  0  0  0  0  0  0  0  0
  -25.0223   -1.8192   18.3274 C   0  0  0  0  0  0  0  0  0  0  0  0
  -25.9612   -2.9830   18.0846 C   0  0  0  0  0  0  0  0  0  0  0  0
  -25.5805   -4.3037   18.3491 C   0  0  0  0  0  0  0  0  0  0  0  0
  -26.4574   -5.3587   18.0939 C   0  0  0  0  0  0  0  0  0  0  0  0
  -27.7320   -5.1043   17.5915 C   0  0  0  0  0  0  0  0  0  0  0  0
  -28.1413   -3.7943   17.3602 C   0  0  0  0  0  0  0  0  0  0  0  0
  -27.2669   -2.7381   17.6163 C   0  0  0  0  0  0  0  0  0  0  0  0
  -21.8763   -0.7841   17.0522 H   0  0  0  0  0  0  0  0  0  0  0  0
  -19.6850   -2.4558   17.3242 H   0  0  0  0  0  0  0  0  0  0  0  0
  -19.7743   -1.0378   16.2572 H   0  0  0  0  0  0  0  0  0  0  0  0
  -20.4190   -3.9432   15.5495 H   0  0  0  0  0  0  0  0  0  0  0  0
  -19.1302   -2.9316   14.8617 H   0  0  0  0  0  0  0  0  0  0  0  0
  -21.6912   -4.4795   13.4712 H   0  0  0  0  0  0  0  0  0  0  0  0
  -20.8195   -0.3900   14.0783 H   0  0  0  0  0  0  0  0  0  0  0  0
  -23.8069   -0.7053   15.9083 H   0  0  0  0  0  0  0  0  0  0  0  0
  -25.3688   -0.7144   16.5108 H   0  0  0  0  0  0  0  0  0  0  0  0
  -23.8604   -3.2018   15.3321 H   0  0  0  0  0  0  0  0  0  0  0  0
  -25.5709   -3.1436   15.6353 H   0  0  0  0  0  0  0  0  0  0  0  0
  -23.9859   -2.0573   13.5413 H   0  0  0  0  0  0  0  0  0  0  0  0
  -26.4507   -4.5177   11.9318 H   0  0  0  0  0  0  0  0  0  0  0  0
  -24.8850   -0.4868   12.7444 H   0  0  0  0  0  0  0  0  0  0  0  0
  -29.1484   -1.9190    8.4076 H   0  0  0  0  0  0  0  0  0  0  0  0
  -31.4142   -2.1743    7.0829 H   0  0  0  0  0  0  0  0  0  0  0  0
  -32.4703    0.1807    6.5415 H   0  0  0  0  0  0  0  0  0  0  0  0
  -27.2012   -1.0147    9.5287 H   0  0  0  0  0  0  0  0  0  0  0  0
  -23.5280    1.3510   12.1651 H   0  0  0  0  0  0  0  0  0  0  0  0
  -24.6445    2.5532   11.4956 H   0  0  0  0  0  0  0  0  0  0  0  0
  -22.3061    1.6241   10.0275 H   0  0  0  0  0  0  0  0  0  0  0  0
  -23.7731    2.1910    9.1911 H   0  0  0  0  0  0  0  0  0  0  0  0
  -23.2021   -0.6855   10.2034 H   0  0  0  0  0  0  0  0  0  0  0  0
  -24.1967   -0.2267    8.8091 H   0  0  0  0  0  0  0  0  0  0  0  0
  -25.5455   -0.8517   18.4261 H   0  0  0  0  0  0  0  0  0  0  0  0
  -24.7323   -1.9812   19.3798 H   0  0  0  0  0  0  0  0  0  0  0  0
  -24.5981   -4.5246   18.7573 H   0  0  0  0  0  0  0  0  0  0  0  0
  -26.1460   -6.3825   18.2908 H   0  0  0  0  0  0  0  0  0  0  0  0
  -28.4098   -5.9303   17.3916 H   0  0  0  0  0  0  0  0  0  0  0  0
  -29.1390   -3.5955   16.9775 H   0  0  0  0  0  0  0  0  0  0  0  0
  -27.6066   -1.7220   17.4257 H   0  0  0  0  0  0  0  0  0  0  0  0
  1  2  2  0
  2  3  1  0
  3  4  1  0
  4  5  1  0
  5  6  1  0
  6  7  1  0
  7  8  2  0
  8  9  1  0
  9 10  2  0
  2 11  1  0
 11 12  1  0
 12 13  1  0
 13 14  1  0
 14 15  1  0
 15 16  1  0
 15 17  1  0
 15 18  1  0
 18 19  2  0
 18 20  1  0
 20 21  1  0
 21 22  1  0
 22 23  2  0
 23 24  1  0
 24 25  2  0
 25 26  1  0
 26 27  2  0
 27 28  1  0
 28 29  2  0
 29 30  1  0
 25 31  1  0
 21 32  1  0
 32 33  1  0
 33 34  1  0
 11 35  1  0
 35 36  1  0
 36 37  2  0
 37 38  1  0
 38 39  2  0
 39 40  1  0
 40 41  2  0
 10  6  1  0
 34 21  1  0
 41 36  1  0
 31 22  1  0
 30 26  1  0
  3 42  1  0
  4 43  1  0
  4 44  1  0
  5 45  1  0
  5 46  1  0
  7 47  1  0
 10 48  1  0
 12 49  1  0
 12 50  1  0
 13 51  1  0
 13 52  1  0
 14 53  1  0
 16 54  1  0
 20 55  1  0
 27 56  1  0
 28 57  1  0
 29 58  1  0
 31 59  1  0
 32 60  1  0
 32 61  1  0
 33 62  1  0
 33 63  1  0
 34 64  1  0
 34 65  1  0
 35 66  1  0
 35 67  1  0
 37 68  1  0
 38 69  1  0
 39 70  1  0
 40 71  1  0
 41 72  1  0
M  END
>  <Energy>  (370) 
69.39894730948528

>  <compound_id>  (370) 
2586

>  <target_id>  (370) 
1

>  <reference_id>  (370) 
174

>  <inspiration_ids>  (370) 
[174, 192]

>  <energy_score>  (370) 
3.4547183979930454

>  <distance_score>  (370) 
1.9607695396170222

>  <path>  (370) 
/opt/xchem-fragalysis-2/maxwin/BulkDock/SCRATCH/505736/C2586-P174/C2586-P174.minimised.mol

>  <scratch_subdir>  (370) 
/opt/xchem-fragalysis-2/maxwin/BulkDock/SCRATCH/505736/C2586-P174

>  <fragmenstein_runtime>  (370) 
12.334694623947144

>  <fragmenstein_outcome>  (370) 
too moved

>  <fragmenstein_mode>  (370) 
expansion

>  <fragmenstein_error>  (370) 


$$$$
C2586-P192
     RDKit          3D

 72 76  0  0  0  0  0  0  0  0999 V2000
  -23.6625   -3.3330   14.9504 O   0  0  0  0  0  0  0  0  0  0  0  0
  -23.3123   -2.5945   15.7934 C   0  0  0  0  0  0  0  0  0  0  0  0
  -22.0178   -2.4472   16.4408 N   0  0  0  0  0  0  0  0  0  0  0  0
  -20.7533   -3.0931   16.1807 C   0  0  0  0  0  0  0  0  0  0  0  0
  -20.5188   -3.4478   14.7103 C   0  0  0  0  0  0  0  0  0  0  0  0
  -20.6403   -2.3198   13.8164 N   0  0  0  0  0  0  0  0  0  0  0  0
  -21.4731   -2.2275   12.7458 C   0  0  0  0  0  0  0  0  0  0  0  0
  -21.3938   -1.0166   12.2415 N   0  0  0  0  0  0  0  0  0  0  0  0
  -20.4884   -0.3057   12.9952 N   0  0  0  0  0  0  0  0  0  0  0  0
  -20.0112   -1.1184   13.9108 C   0  0  0  0  0  0  0  0  0  0  0  0
  -24.0529   -1.5613   16.5087 N   0  0  0  0  0  0  0  0  0  0  0  0
  -23.9226   -0.2078   15.7703 C   0  0  0  0  0  0  0  0  0  0  0  0
  -24.2459   -0.1020   14.2383 C   0  0  0  0  0  0  0  0  0  0  0  0
  -23.3720    0.7291   13.4099 N   0  0  0  0  0  0  0  0  0  0  0  0
  -23.2565    2.1675   13.6597 C   0  0  0  0  0  0  0  0  0  0  0  0
  -24.8025    3.0074   14.1000 S   0  0  0  0  0  0  0  0  0  0  0  0
  -22.0316    2.3956   14.9341 Cl  0  0  0  0  0  0  0  0  0  0  0  0
  -22.6763    2.9006   12.3493 C   0  0  0  0  0  0  0  0  0  0  0  0
  -22.4018    4.0724   12.3971 O   0  0  0  0  0  0  0  0  0  0  0  0
  -22.5902    1.9558   11.2565 N   0  0  0  0  0  0  0  0  0  0  0  0
  -22.0563    2.1006    9.9032 C   0  0  0  0  0  0  0  0  0  0  0  0
  -22.6388    3.3564    9.1694 C   0  0  0  0  0  0  0  0  0  0  0  0
  -23.1500    3.3774    7.9587 N   0  0  0  0  0  0  0  0  0  0  0  0
  -23.5299    4.6758    7.6884 N   0  0  0  0  0  0  0  0  0  0  0  0
  -23.2467    5.4177    8.7410 C   0  0  0  0  0  0  0  0  0  0  0  0
  -23.4929    6.8205    8.8970 C   0  0  0  0  0  0  0  0  0  0  0  0
  -23.2383    7.6106   10.0048 C   0  0  0  0  0  0  0  0  0  0  0  0
  -23.6122    8.9735    9.8060 C   0  0  0  0  0  0  0  0  0  0  0  0
  -24.1414    9.1833    8.5537 C   0  0  0  0  0  0  0  0  0  0  0  0
  -24.1859    7.7472    7.6290 S   0  0  0  0  0  0  0  0  0  0  0  0
  -22.6700    4.6205    9.6883 N   0  0  0  0  0  0  0  0  0  0  0  0
  -20.5063    2.0065    9.8411 C   0  0  0  0  0  0  0  0  0  0  0  0
  -20.6568    1.1037    8.6020 C   0  0  0  0  0  0  0  0  0  0  0  0
  -22.0881    0.7856    9.0751 C   0  0  0  0  0  0  0  0  0  0  0  0
  -25.5122   -1.2009   16.4691 C   0  0  0  0  0  0  0  0  0  0  0  0
  -26.2862   -2.3480   17.1301 C   0  0  0  0  0  0  0  0  0  0  0  0
  -25.9529   -2.7961   18.4170 C   0  0  0  0  0  0  0  0  0  0  0  0
  -26.6545   -3.8517   18.9991 C   0  0  0  0  0  0  0  0  0  0  0  0
  -27.7014   -4.4604   18.3087 C   0  0  0  0  0  0  0  0  0  0  0  0
  -28.0518   -4.0160   17.0361 C   0  0  0  0  0  0  0  0  0  0  0  0
  -27.3500   -2.9641   16.4489 C   0  0  0  0  0  0  0  0  0  0  0  0
  -22.0493   -1.6523   17.0683 H   0  0  0  0  0  0  0  0  0  0  0  0
  -20.7183   -3.9944   16.7970 H   0  0  0  0  0  0  0  0  0  0  0  0
  -19.9737   -2.4179   16.5470 H   0  0  0  0  0  0  0  0  0  0  0  0
  -21.2440   -4.2000   14.3853 H   0  0  0  0  0  0  0  0  0  0  0  0
  -19.5164   -3.8631   14.5657 H   0  0  0  0  0  0  0  0  0  0  0  0
  -22.1164   -3.0281   12.4049 H   0  0  0  0  0  0  0  0  0  0  0  0
  -19.2579   -0.8824   14.6488 H   0  0  0  0  0  0  0  0  0  0  0  0
  -22.8332   -0.0711   15.8158 H   0  0  0  0  0  0  0  0  0  0  0  0
  -24.2696    0.6628   16.3510 H   0  0  0  0  0  0  0  0  0  0  0  0
  -24.2108   -1.1015   13.7934 H   0  0  0  0  0  0  0  0  0  0  0  0
  -25.2824    0.2222   14.0946 H   0  0  0  0  0  0  0  0  0  0  0  0
  -22.4177    0.3356   13.4207 H   0  0  0  0  0  0  0  0  0  0  0  0
  -24.2718    4.2397   14.0798 H   0  0  0  0  0  0  0  0  0  0  0  0
  -22.8301    1.0222   11.6038 H   0  0  0  0  0  0  0  0  0  0  0  0
  -22.8046    7.2415   10.9263 H   0  0  0  0  0  0  0  0  0  0  0  0
  -23.4988    9.7577   10.5446 H   0  0  0  0  0  0  0  0  0  0  0  0
  -24.5065   10.1101    8.1330 H   0  0  0  0  0  0  0  0  0  0  0  0
  -22.3704    4.8830   10.6186 H   0  0  0  0  0  0  0  0  0  0  0  0
  -20.0475    1.4951   10.6962 H   0  0  0  0  0  0  0  0  0  0  0  0
  -19.9623    2.9406    9.6712 H   0  0  0  0  0  0  0  0  0  0  0  0
  -19.9744    0.2513    8.5517 H   0  0  0  0  0  0  0  0  0  0  0  0
  -20.6156    1.6476    7.6515 H   0  0  0  0  0  0  0  0  0  0  0  0
  -22.1488   -0.1310    9.6743 H   0  0  0  0  0  0  0  0  0  0  0  0
  -22.8364    0.7152    8.2801 H   0  0  0  0  0  0  0  0  0  0  0  0
  -25.9307   -1.1692   15.4582 H   0  0  0  0  0  0  0  0  0  0  0  0
  -25.7733   -0.3198   17.0748 H   0  0  0  0  0  0  0  0  0  0  0  0
  -25.1352   -2.3326   18.9634 H   0  0  0  0  0  0  0  0  0  0  0  0
  -26.3840   -4.2028   19.9916 H   0  0  0  0  0  0  0  0  0  0  0  0
  -28.2431   -5.2857   18.7638 H   0  0  0  0  0  0  0  0  0  0  0  0
  -28.8657   -4.4948   16.4984 H   0  0  0  0  0  0  0  0  0  0  0  0
  -27.6307   -2.6426   15.4486 H   0  0  0  0  0  0  0  0  0  0  0  0
  1  2  2  0
  2  3  1  0
  3  4  1  0
  4  5  1  0
  5  6  1  0
  6  7  1  0
  7  8  2  0
  8  9  1  0
  9 10  2  0
  2 11  1  0
 11 12  1  0
 12 13  1  0
 13 14  1  0
 14 15  1  0
 15 16  1  0
 15 17  1  0
 15 18  1  0
 18 19  2  0
 18 20  1  0
 20 21  1  0
 21 22  1  0
 22 23  2  0
 23 24  1  0
 24 25  2  0
 25 26  1  0
 26 27  2  0
 27 28  1  0
 28 29  2  0
 29 30  1  0
 25 31  1  0
 21 32  1  0
 32 33  1  0
 33 34  1  0
 11 35  1  0
 35 36  1  0
 36 37  2  0
 37 38  1  0
 38 39  2  0
 39 40  1  0
 40 41  2  0
 10  6  1  0
 34 21  1  0
 41 36  1  0
 31 22  1  0
 30 26  1  0
  3 42  1  0
  4 43  1  0
  4 44  1  0
  5 45  1  0
  5 46  1  0
  7 47  1  0
 10 48  1  0
 12 49  1  0
 12 50  1  0
 13 51  1  0
 13 52  1  0
 14 53  1  0
 16 54  1  0
 20 55  1  0
 27 56  1  0
 28 57  1  0
 29 58  1  0
 31 59  1  0
 32 60  1  0
 32 61  1  0
 33 62  1  0
 33 63  1  0
 34 64  1  0
 34 65  1  0
 35 66  1  0
 35 67  1  0
 37 68  1  0
 38 69  1  0
 39 70  1  0
 40 71  1  0
 41 72  1  0
M  END
>  <Energy>  (371) 
62.428736648740404

>  <compound_id>  (371) 
2586

>  <target_id>  (371) 
1

>  <reference_id>  (371) 
192

>  <inspiration_ids>  (371) 
[174, 192]

>  <energy_score>  (371) 
-3.515492262752597

>  <distance_score>  (371) 
2.4346036285488375

>  <path>  (371) 
/opt/xchem-fragalysis-2/maxwin/BulkDock/SCRATCH/505736/C2586-P192/C2586-P192.minimised.mol

>  <scratch_subdir>  (371) 
/opt/xchem-fragalysis-2/maxwin/BulkDock/SCRATCH/505736/C2586-P192

>  <fragmenstein_runtime>  (371) 
14.002567291259766

>  <fragmenstein_outcome>  (371) 
too moved

>  <fragmenstein_mode>  (371) 
expansion

>  <fragmenstein_error>  (371) 


$$$$
C2587-P175
     RDKit          3D

 70 75  0  0  0  0  0  0  0  0999 V2000
   -3.1554    4.4805   23.8923 C   0  0  0  0  0  0  0  0  0  0  0  0
   -2.0360    4.7374   24.7288 O   0  0  0  0  0  0  0  0  0  0  0  0
   -1.6670    3.7561   25.6082 C   0  0  0  0  0  0  0  0  0  0  0  0
   -2.4237    2.6133   25.8761 C   0  0  0  0  0  0  0  0  0  0  0  0
   -1.9242    1.6055   26.7083 C   0  0  0  0  0  0  0  0  0  0  0  0
   -0.6652    1.7314   27.3087 C   0  0  0  0  0  0  0  0  0  0  0  0
   -0.1056    0.6516   28.1448 C   0  0  0  0  0  0  0  0  0  0  0  0
    1.2212    0.0585   27.9281 C   0  0  0  0  0  0  0  0  0  0  0  0
    1.7107   -0.9864   28.6433 C   0  0  0  0  0  0  0  0  0  0  0  0
    3.0720   -1.5820   28.2848 C   0  0  0  0  0  0  0  0  0  0  0  0
    2.8501   -2.8215   27.5576 N   0  0  0  0  0  0  0  0  0  0  0  0
    3.9638   -3.4347   26.8409 C   0  0  0  0  0  0  0  0  0  0  0  0
    3.2070   -5.0555   26.3423 S   0  0  0  0  0  0  0  0  0  0  0  0
    4.3893   -2.4930   25.3656 Cl  0  0  0  0  0  0  0  0  0  0  0  0
    5.3084   -3.7224   27.6424 C   0  0  0  0  0  0  0  0  0  0  0  0
    5.6787   -2.9741   28.5051 O   0  0  0  0  0  0  0  0  0  0  0  0
    5.9300   -4.9282   27.0961 N   0  0  0  0  0  0  0  0  0  0  0  0
    7.2223   -5.5353   27.3590 C   0  0  0  0  0  0  0  0  0  0  0  0
    7.2146   -6.4720   28.6090 C   0  0  0  0  0  0  0  0  0  0  0  0
    7.0642   -6.0680   29.8498 N   0  0  0  0  0  0  0  0  0  0  0  0
    7.4963   -7.0869   30.6699 N   0  0  0  0  0  0  0  0  0  0  0  0
    7.8380   -8.1072   29.9115 C   0  0  0  0  0  0  0  0  0  0  0  0
    8.4131   -9.3379   30.3506 C   0  0  0  0  0  0  0  0  0  0  0  0
    8.6438   -9.7224   31.6559 C   0  0  0  0  0  0  0  0  0  0  0  0
    9.2513  -11.0085   31.7465 C   0  0  0  0  0  0  0  0  0  0  0  0
    9.4695  -11.5639   30.5060 C   0  0  0  0  0  0  0  0  0  0  0  0
    8.9358  -10.5399   29.2463 S   0  0  0  0  0  0  0  0  0  0  0  0
    7.5740   -7.7904   28.6115 N   0  0  0  0  0  0  0  0  0  0  0  0
    8.4442   -4.5823   27.3208 C   0  0  0  0  0  0  0  0  0  0  0  0
    9.2071   -5.7038   26.5734 C   0  0  0  0  0  0  0  0  0  0  0  0
    7.8288   -6.2064   26.0836 C   0  0  0  0  0  0  0  0  0  0  0  0
    0.8891   -1.4829   29.7123 C   0  0  0  0  0  0  0  0  0  0  0  0
    1.0563   -2.4511   30.5913 N   0  0  0  0  0  0  0  0  0  0  0  0
   -0.0402   -2.4656   31.4268 N   0  0  0  0  0  0  0  0  0  0  0  0
   -0.8513   -1.5026   31.0538 C   0  0  0  0  0  0  0  0  0  0  0  0
   -1.9920   -1.1121   31.6764 N   0  0  0  0  0  0  0  0  0  0  0  0
   -0.3352   -0.8716   29.9356 N   0  0  0  0  0  0  0  0  0  0  0  0
   -0.8413    0.1658   29.1619 C   0  0  0  0  0  0  0  0  0  0  0  0
    0.0730    2.8956   27.0783 C   0  0  0  0  0  0  0  0  0  0  0  0
   -0.4325    3.9096   26.2577 C   0  0  0  0  0  0  0  0  0  0  0  0
    0.3937    4.9952   26.1025 O   0  0  0  0  0  0  0  0  0  0  0  0
   -0.2636    6.2317   26.3853 C   0  0  0  0  0  0  0  0  0  0  0  0
   -2.9785    3.6043   23.2603 H   0  0  0  0  0  0  0  0  0  0  0  0
   -3.2865    5.3443   23.2336 H   0  0  0  0  0  0  0  0  0  0  0  0
   -4.0725    4.3679   24.4761 H   0  0  0  0  0  0  0  0  0  0  0  0
   -3.4091    2.4717   25.4464 H   0  0  0  0  0  0  0  0  0  0  0  0
   -2.5161    0.7043   26.8544 H   0  0  0  0  0  0  0  0  0  0  0  0
    1.8107    0.4780   27.1164 H   0  0  0  0  0  0  0  0  0  0  0  0
    3.6485   -0.8667   27.6871 H   0  0  0  0  0  0  0  0  0  0  0  0
    3.6273   -1.7617   29.2112 H   0  0  0  0  0  0  0  0  0  0  0  0
    2.1289   -2.6480   26.8639 H   0  0  0  0  0  0  0  0  0  0  0  0
    2.6193   -5.2366   27.5355 H   0  0  0  0  0  0  0  0  0  0  0  0
    5.2925   -5.3580   26.4296 H   0  0  0  0  0  0  0  0  0  0  0  0
    8.3868   -9.1049   32.5095 H   0  0  0  0  0  0  0  0  0  0  0  0
    9.5127  -11.5009   32.6754 H   0  0  0  0  0  0  0  0  0  0  0  0
    9.9077  -12.5274   30.2809 H   0  0  0  0  0  0  0  0  0  0  0  0
    7.8056   -8.3675   27.8183 H   0  0  0  0  0  0  0  0  0  0  0  0
    8.2915   -3.6698   26.7332 H   0  0  0  0  0  0  0  0  0  0  0  0
    8.8750   -4.2942   28.2847 H   0  0  0  0  0  0  0  0  0  0  0  0
    9.7262   -6.4045   27.2391 H   0  0  0  0  0  0  0  0  0  0  0  0
    9.9255   -5.3896   25.8152 H   0  0  0  0  0  0  0  0  0  0  0  0
    7.4800   -5.7637   25.1440 H   0  0  0  0  0  0  0  0  0  0  0  0
    7.7347   -7.2897   25.9714 H   0  0  0  0  0  0  0  0  0  0  0  0
   -2.2390   -0.1314   31.6040 H   0  0  0  0  0  0  0  0  0  0  0  0
   -2.0350   -1.4342   32.6394 H   0  0  0  0  0  0  0  0  0  0  0  0
   -1.8283    0.5309   29.4119 H   0  0  0  0  0  0  0  0  0  0  0  0
    1.0474    3.0364   27.5405 H   0  0  0  0  0  0  0  0  0  0  0  0
   -1.0580    6.1307   27.1342 H   0  0  0  0  0  0  0  0  0  0  0  0
   -0.6529    6.6735   25.4635 H   0  0  0  0  0  0  0  0  0  0  0  0
    0.4866    6.9192   26.7885 H   0  0  0  0  0  0  0  0  0  0  0  0
  1  2  1  0
  2  3  1  0
  3  4  2  0
  4  5  1  0
  5  6  2  0
  6  7  1  0
  7  8  1  0
  8  9  2  0
  9 10  1  0
 10 11  1  0
 11 12  1  0
 12 13  1  0
 12 14  1  0
 12 15  1  0
 15 16  2  0
 15 17  1  0
 17 18  1  0
 18 19  1  0
 19 20  2  0
 20 21  1  0
 21 22  2  0
 22 23  1  0
 23 24  2  0
 24 25  1  0
 25 26  2  0
 26 27  1  0
 22 28  1  0
 18 29  1  0
 29 30  1  0
 30 31  1  0
  9 32  1  0
 32 33  2  0
 33 34  1  0
 34 35  2  0
 35 36  1  0
 35 37  1  0
 37 38  1  0
  6 39  1  0
 39 40  2  0
 40 41  1  0
 41 42  1  0
 40  3  1  0
 38  7  2  0
 31 18  1  0
 37 32  1  0
 28 19  1  0
 27 23  1  0
  1 43  1  0
  1 44  1  0
  1 45  1  0
  4 46  1  0
  5 47  1  0
  8 48  1  0
 10 49  1  0
 10 50  1  0
 11 51  1  0
 13 52  1  0
 17 53  1  0
 24 54  1  0
 25 55  1  0
 26 56  1  0
 28 57  1  0
 29 58  1  0
 29 59  1  0
 30 60  1  0
 30 61  1  0
 31 62  1  0
 31 63  1  0
 36 64  1  0
 36 65  1  0
 38 66  1  0
 39 67  1  0
 42 68  1  0
 42 69  1  0
 42 70  1  0
M  END
>  <Energy>  (372) 
120.98363633497291

>  <compound_id>  (372) 
2587

>  <target_id>  (372) 
1

>  <reference_id>  (372) 
175

>  <inspiration_ids>  (372) 
[175, 13]

>  <energy_score>  (372) 
-80.7337068989383

>  <distance_score>  (372) 
5.323140920218227

>  <path>  (372) 
/opt/xchem-fragalysis-2/maxwin/BulkDock/SCRATCH/505736/C2587-P175/C2587-P175.minimised.mol

>  <scratch_subdir>  (372) 
/opt/xchem-fragalysis-2/maxwin/BulkDock/SCRATCH/505736/C2587-P175

>  <fragmenstein_runtime>  (372) 
81.97317957878113

>  <fragmenstein_outcome>  (372) 
too moved

>  <fragmenstein_mode>  (372) 
expansion

>  <fragmenstein_error>  (372) 


$$$$
C2587-P13
     RDKit          3D

 70 75  0  0  0  0  0  0  0  0999 V2000
   -1.0862    5.7322   25.4926 C   0  0  0  0  0  0  0  0  0  0  0  0
   -1.2979    4.3526   25.2120 O   0  0  0  0  0  0  0  0  0  0  0  0
   -0.8595    3.4813   26.1723 C   0  0  0  0  0  0  0  0  0  0  0  0
    0.2482    3.7145   26.9855 C   0  0  0  0  0  0  0  0  0  0  0  0
    0.6656    2.7368   27.8936 C   0  0  0  0  0  0  0  0  0  0  0  0
   -0.0087    1.5138   27.9896 C   0  0  0  0  0  0  0  0  0  0  0  0
    0.4646    0.4629   28.8940 C   0  0  0  0  0  0  0  0  0  0  0  0
    1.1198   -0.7504   28.4123 C   0  0  0  0  0  0  0  0  0  0  0  0
    1.5831   -1.7361   29.2222 C   0  0  0  0  0  0  0  0  0  0  0  0
    2.3453   -2.9351   28.6635 C   0  0  0  0  0  0  0  0  0  0  0  0
    3.3002   -2.5495   27.6236 N   0  0  0  0  0  0  0  0  0  0  0  0
    4.1287   -3.5979   27.0207 C   0  0  0  0  0  0  0  0  0  0  0  0
    3.2390   -5.1044   26.5210 S   0  0  0  0  0  0  0  0  0  0  0  0
    4.7272   -2.7868   25.5019 Cl  0  0  0  0  0  0  0  0  0  0  0  0
    5.3186   -4.0392   27.9789 C   0  0  0  0  0  0  0  0  0  0  0  0
    5.0296   -4.4880   29.0574 O   0  0  0  0  0  0  0  0  0  0  0  0
    6.6036   -3.8466   27.3556 N   0  0  0  0  0  0  0  0  0  0  0  0
    7.9362   -4.2183   27.7896 C   0  0  0  0  0  0  0  0  0  0  0  0
    8.1783   -5.7406   27.5880 C   0  0  0  0  0  0  0  0  0  0  0  0
    8.1367   -6.3645   26.4321 N   0  0  0  0  0  0  0  0  0  0  0  0
    8.6234   -7.6379   26.6321 N   0  0  0  0  0  0  0  0  0  0  0  0
    8.9415   -7.7599   27.9053 C   0  0  0  0  0  0  0  0  0  0  0  0
    9.6908   -8.8180   28.5121 C   0  0  0  0  0  0  0  0  0  0  0  0
   10.0871   -8.9311   29.8338 C   0  0  0  0  0  0  0  0  0  0  0  0
   10.9160  -10.0705   30.0623 C   0  0  0  0  0  0  0  0  0  0  0  0
   11.1036  -10.8057   28.9151 C   0  0  0  0  0  0  0  0  0  0  0  0
   10.3021  -10.1155   27.5728 S   0  0  0  0  0  0  0  0  0  0  0  0
    8.5391   -6.6297   28.5593 N   0  0  0  0  0  0  0  0  0  0  0  0
    9.0781   -3.3174   27.2505 C   0  0  0  0  0  0  0  0  0  0  0  0
    8.8898   -2.4335   28.4943 C   0  0  0  0  0  0  0  0  0  0  0  0
    8.2998   -3.6668   29.1991 C   0  0  0  0  0  0  0  0  0  0  0  0
    1.3451   -1.5720   30.6291 C   0  0  0  0  0  0  0  0  0  0  0  0
    1.5803   -2.3535   31.6633 N   0  0  0  0  0  0  0  0  0  0  0  0
    1.1691   -1.6902   32.7994 N   0  0  0  0  0  0  0  0  0  0  0  0
    0.7082   -0.5118   32.4449 C   0  0  0  0  0  0  0  0  0  0  0  0
    0.2531    0.4707   33.2602 N   0  0  0  0  0  0  0  0  0  0  0  0
    0.7546   -0.3963   31.0675 N   0  0  0  0  0  0  0  0  0  0  0  0
    0.3191    0.6159   30.2215 C   0  0  0  0  0  0  0  0  0  0  0  0
   -1.1083    1.2717   27.1731 C   0  0  0  0  0  0  0  0  0  0  0  0
   -1.5342    2.2577   26.2870 C   0  0  0  0  0  0  0  0  0  0  0  0
   -2.6162    1.9302   25.5157 O   0  0  0  0  0  0  0  0  0  0  0  0
   -3.7190    2.7770   25.8329 C   0  0  0  0  0  0  0  0  0  0  0  0
   -1.3340    5.9833   26.5299 H   0  0  0  0  0  0  0  0  0  0  0  0
   -0.0543    6.0148   25.2607 H   0  0  0  0  0  0  0  0  0  0  0  0
   -1.7464    6.3116   24.8398 H   0  0  0  0  0  0  0  0  0  0  0  0
    0.8189    4.6347   26.9152 H   0  0  0  0  0  0  0  0  0  0  0  0
    1.5430    2.9300   28.5077 H   0  0  0  0  0  0  0  0  0  0  0  0
    1.2435   -0.8004   27.3363 H   0  0  0  0  0  0  0  0  0  0  0  0
    2.8771   -3.4184   29.4886 H   0  0  0  0  0  0  0  0  0  0  0  0
    1.5994   -3.6459   28.2910 H   0  0  0  0  0  0  0  0  0  0  0  0
    2.8051   -2.1087   26.8604 H   0  0  0  0  0  0  0  0  0  0  0  0
    4.2708   -5.6391   25.8437 H   0  0  0  0  0  0  0  0  0  0  0  0
    6.4624   -3.5165   26.3952 H   0  0  0  0  0  0  0  0  0  0  0  0
    9.8250   -8.2265   30.6125 H   0  0  0  0  0  0  0  0  0  0  0  0
   11.3459  -10.3413   31.0194 H   0  0  0  0  0  0  0  0  0  0  0  0
   11.6728  -11.7176   28.7942 H   0  0  0  0  0  0  0  0  0  0  0  0
    8.6638   -6.4294   29.5384 H   0  0  0  0  0  0  0  0  0  0  0  0
   10.0615   -3.8025   27.2077 H   0  0  0  0  0  0  0  0  0  0  0  0
    8.9202   -2.7864   26.3130 H   0  0  0  0  0  0  0  0  0  0  0  0
    9.8054   -2.0276   28.9319 H   0  0  0  0  0  0  0  0  0  0  0  0
    8.1719   -1.6170   28.3541 H   0  0  0  0  0  0  0  0  0  0  0  0
    9.0603   -4.2311   29.7521 H   0  0  0  0  0  0  0  0  0  0  0  0
    7.4730   -3.4548   29.8829 H   0  0  0  0  0  0  0  0  0  0  0  0
    0.5020    1.4250   33.0165 H   0  0  0  0  0  0  0  0  0  0  0  0
    0.4545    0.2920   34.2431 H   0  0  0  0  0  0  0  0  0  0  0  0
   -0.1370    1.4815   30.6795 H   0  0  0  0  0  0  0  0  0  0  0  0
   -1.6367    0.3212   27.2084 H   0  0  0  0  0  0  0  0  0  0  0  0
   -4.6302    2.1716   25.8271 H   0  0  0  0  0  0  0  0  0  0  0  0
   -3.8167    3.5560   25.0717 H   0  0  0  0  0  0  0  0  0  0  0  0
   -3.6280    3.2242   26.8271 H   0  0  0  0  0  0  0  0  0  0  0  0
  1  2  1  0
  2  3  1  0
  3  4  2  0
  4  5  1  0
  5  6  2  0
  6  7  1  0
  7  8  1  0
  8  9  2  0
  9 10  1  0
 10 11  1  0
 11 12  1  0
 12 13  1  0
 12 14  1  0
 12 15  1  0
 15 16  2  0
 15 17  1  0
 17 18  1  0
 18 19  1  0
 19 20  2  0
 20 21  1  0
 21 22  2  0
 22 23  1  0
 23 24  2  0
 24 25  1  0
 25 26  2  0
 26 27  1  0
 22 28  1  0
 18 29  1  0
 29 30  1  0
 30 31  1  0
  9 32  1  0
 32 33  2  0
 33 34  1  0
 34 35  2  0
 35 36  1  0
 35 37  1  0
 37 38  1  0
  6 39  1  0
 39 40  2  0
 40 41  1  0
 41 42  1  0
 40  3  1  0
 38  7  2  0
 31 18  1  0
 37 32  1  0
 28 19  1  0
 27 23  1  0
  1 43  1  0
  1 44  1  0
  1 45  1  0
  4 46  1  0
  5 47  1  0
  8 48  1  0
 10 49  1  0
 10 50  1  0
 11 51  1  0
 13 52  1  0
 17 53  1  0
 24 54  1  0
 25 55  1  0
 26 56  1  0
 28 57  1  0
 29 58  1  0
 29 59  1  0
 30 60  1  0
 30 61  1  0
 31 62  1  0
 31 63  1  0
 36 64  1  0
 36 65  1  0
 38 66  1  0
 39 67  1  0
 42 68  1  0
 42 69  1  0
 42 70  1  0
M  END
>  <Energy>  (373) 
117.38909443241644

>  <compound_id>  (373) 
2587

>  <target_id>  (373) 
1

>  <reference_id>  (373) 
13

>  <inspiration_ids>  (373) 
[175, 13]

>  <energy_score>  (373) 
-84.32824880149099

>  <distance_score>  (373) 
5.799678326157674

>  <path>  (373) 
/opt/xchem-fragalysis-2/maxwin/BulkDock/SCRATCH/505736/C2587-P13/C2587-P13.minimised.mol

>  <scratch_subdir>  (373) 
/opt/xchem-fragalysis-2/maxwin/BulkDock/SCRATCH/505736/C2587-P13

>  <fragmenstein_runtime>  (373) 
48.17385125160217

>  <fragmenstein_outcome>  (373) 
too moved

>  <fragmenstein_mode>  (373) 
expansion

>  <fragmenstein_error>  (373) 


$$$$
C2587-P175
     RDKit          3D

 70 75  0  0  0  0  0  0  0  0999 V2000
   -5.1790  -10.7378   35.6307 C   0  0  0  0  0  0  0  0  0  0  0  0
   -3.7592  -10.5651   35.8380 O   0  0  0  0  0  0  0  0  0  0  0  0
   -3.4694   -9.3273   36.3574 C   0  0  0  0  0  0  0  0  0  0  0  0
   -2.0357   -8.7069   35.8453 C   0  0  0  0  0  0  0  0  0  0  0  0
   -1.6209   -8.1297   34.5147 C   0  0  0  0  0  0  0  0  0  0  0  0
   -2.5653   -8.2264   33.5259 C   0  0  0  0  0  0  0  0  0  0  0  0
   -2.0488   -7.6989   31.7688 C   0  0  0  0  0  0  0  0  0  0  0  0
   -2.4477   -7.3805   29.9714 C   0  0  0  0  0  0  0  0  0  0  0  0
   -1.7911   -7.0475   28.5477 C   0  0  0  0  0  0  0  0  0  0  0  0
   -2.0738   -6.9868   26.4544 C   0  0  0  0  0  0  0  0  0  0  0  0
   -1.5257   -7.0429   24.4639 N   0  0  0  0  0  0  0  0  0  0  0  0
    0.2929   -7.0502   23.3705 C   0  0  0  0  0  0  0  0  0  0  0  0
    0.3324   -7.6669   21.3372 S   0  0  0  0  0  0  0  0  0  0  0  0
    0.5154   -5.1021   23.1197 Cl  0  0  0  0  0  0  0  0  0  0  0  0
    2.2203   -7.6586   23.9649 C   0  0  0  0  0  0  0  0  0  0  0  0
    2.6857   -8.6737   23.5349 O   0  0  0  0  0  0  0  0  0  0  0  0
    3.0367   -6.5697   24.9966 N   0  0  0  0  0  0  0  0  0  0  0  0
    4.4563   -6.5555   25.4943 C   0  0  0  0  0  0  0  0  0  0  0  0
    4.8282   -7.2193   26.8744 C   0  0  0  0  0  0  0  0  0  0  0  0
    4.3776   -6.8323   28.0491 N   0  0  0  0  0  0  0  0  0  0  0  0
    5.3529   -7.1284   28.9899 N   0  0  0  0  0  0  0  0  0  0  0  0
    6.3326   -7.7718   28.3895 C   0  0  0  0  0  0  0  0  0  0  0  0
    7.5095   -8.3226   28.9917 C   0  0  0  0  0  0  0  0  0  0  0  0
    8.0854   -7.9573   30.1926 C   0  0  0  0  0  0  0  0  0  0  0  0
    9.2210   -8.7547   30.5241 C   0  0  0  0  0  0  0  0  0  0  0  0
    9.4884   -9.6971   29.5574 C   0  0  0  0  0  0  0  0  0  0  0  0
    8.3850   -9.6064   28.2559 S   0  0  0  0  0  0  0  0  0  0  0  0
    6.0105   -7.8931   27.0707 N   0  0  0  0  0  0  0  0  0  0  0  0
    4.9629   -5.0628   25.6119 C   0  0  0  0  0  0  0  0  0  0  0  0
    6.2243   -5.4547   24.8395 C   0  0  0  0  0  0  0  0  0  0  0  0
    5.5653   -6.7804   24.4422 C   0  0  0  0  0  0  0  0  0  0  0  0
   -0.6295   -6.4307   29.4906 C   0  0  0  0  0  0  0  0  0  0  0  0
    0.3469   -5.5265   29.4037 N   0  0  0  0  0  0  0  0  0  0  0  0
    1.5101   -6.2844   29.6117 N   0  0  0  0  0  0  0  0  0  0  0  0
    1.0760   -7.4884   29.9482 C   0  0  0  0  0  0  0  0  0  0  0  0
    1.2126   -8.6867   29.2652 N   0  0  0  0  0  0  0  0  0  0  0  0
   -0.1247   -7.2430   30.5184 N   0  0  0  0  0  0  0  0  0  0  0  0
   -0.7150   -7.7575   31.6479 C   0  0  0  0  0  0  0  0  0  0  0  0
   -3.9806   -8.3230   34.6402 C   0  0  0  0  0  0  0  0  0  0  0  0
   -4.6117   -8.6766   36.1098 C   0  0  0  0  0  0  0  0  0  0  0  0
   -5.9507   -8.2479   37.1262 O   0  0  0  0  0  0  0  0  0  0  0  0
   -7.2489   -8.1251   38.7234 C   0  0  0  0  0  0  0  0  0  0  0  0
   -5.6632  -11.4346   36.2970 H   0  0  0  0  0  0  0  0  0  0  0  0
   -5.4301  -10.7009   34.5708 H   0  0  0  0  0  0  0  0  0  0  0  0
   -5.8195  -10.0901   36.1206 H   0  0  0  0  0  0  0  0  0  0  0  0
   -1.1854   -8.8205   36.5201 H   0  0  0  0  0  0  0  0  0  0  0  0
   -0.5882   -7.8438   34.3960 H   0  0  0  0  0  0  0  0  0  0  0  0
   -3.4719   -7.5859   29.8224 H   0  0  0  0  0  0  0  0  0  0  0  0
   -2.9445   -7.5717   26.4502 H   0  0  0  0  0  0  0  0  0  0  0  0
   -2.0893   -5.9077   26.4061 H   0  0  0  0  0  0  0  0  0  0  0  0
   -2.1050   -6.3118   24.0474 H   0  0  0  0  0  0  0  0  0  0  0  0
   -0.9702   -7.6318   21.4421 H   0  0  0  0  0  0  0  0  0  0  0  0
    2.3955   -5.8379   25.2793 H   0  0  0  0  0  0  0  0  0  0  0  0
    7.6988   -7.1576   30.8142 H   0  0  0  0  0  0  0  0  0  0  0  0
    9.8083   -8.6415   31.4274 H   0  0  0  0  0  0  0  0  0  0  0  0
   10.2822  -10.4320   29.5505 H   0  0  0  0  0  0  0  0  0  0  0  0
    6.6087   -8.2959   26.3661 H   0  0  0  0  0  0  0  0  0  0  0  0
    4.3293   -4.3062   25.1460 H   0  0  0  0  0  0  0  0  0  0  0  0
    5.1692   -4.6860   26.6215 H   0  0  0  0  0  0  0  0  0  0  0  0
    7.1025   -5.5826   25.4818 H   0  0  0  0  0  0  0  0  0  0  0  0
    6.4861   -4.7942   24.0146 H   0  0  0  0  0  0  0  0  0  0  0  0
    5.2243   -6.8640   23.4211 H   0  0  0  0  0  0  0  0  0  0  0  0
    6.2357   -7.6297   24.5775 H   0  0  0  0  0  0  0  0  0  0  0  0
    1.3830   -9.4477   29.9386 H   0  0  0  0  0  0  0  0  0  0  0  0
    0.3180   -9.0276   28.9002 H   0  0  0  0  0  0  0  0  0  0  0  0
   -0.0370   -8.1317   32.3944 H   0  0  0  0  0  0  0  0  0  0  0  0
   -3.6141   -7.3257   35.0094 H   0  0  0  0  0  0  0  0  0  0  0  0
   -8.1468   -7.5718   38.3870 H   0  0  0  0  0  0  0  0  0  0  0  0
   -6.8322   -7.4130   39.5319 H   0  0  0  0  0  0  0  0  0  0  0  0
   -8.0801   -8.8718   38.7499 H   0  0  0  0  0  0  0  0  0  0  0  0
  1  2  1  0
  2  3  1  0
  3  4  2  0
  4  5  1  0
  5  6  2  0
  6  7  1  0
  7  8  1  0
  8  9  2  0
  9 10  1  0
 10 11  1  0
 11 12  1  0
 12 13  1  0
 12 14  1  0
 12 15  1  0
 15 16  2  0
 15 17  1  0
 17 18  1  0
 18 19  1  0
 19 20  2  0
 20 21  1  0
 21 22  2  0
 22 23  1  0
 23 24  2  0
 24 25  1  0
 25 26  2  0
 26 27  1  0
 22 28  1  0
 18 29  1  0
 29 30  1  0
 30 31  1  0
  9 32  1  0
 32 33  2  0
 33 34  1  0
 34 35  2  0
 35 36  1  0
 35 37  1  0
 37 38  1  0
  6 39  1  0
 39 40  2  0
 40 41  1  0
 41 42  1  0
 40  3  1  0
 38  7  2  0
 31 18  1  0
 37 32  1  0
 28 19  1  0
 27 23  1  0
  1 43  1  0
  1 44  1  0
  1 45  1  0
  4 46  1  0
  5 47  1  0
  8 48  1  0
 10 49  1  0
 10 50  1  0
 11 51  1  0
 13 52  1  0
 17 53  1  0
 24 54  1  0
 25 55  1  0
 26 56  1  0
 28 57  1  0
 29 58  1  0
 29 59  1  0
 30 60  1  0
 30 61  1  0
 31 62  1  0
 31 63  1  0
 36 64  1  0
 36 65  1  0
 38 66  1  0
 39 67  1  0
 42 68  1  0
 42 69  1  0
 42 70  1  0
M  END
>  <Energy>  (374) 
1553.3831402517797

>  <compound_id>  (374) 
2587

>  <target_id>  (374) 
1

>  <reference_id>  (374) 
175

>  <inspiration_ids>  (374) 
[175, 25]

>  <energy_score>  (374) 
1351.6657970178685

>  <distance_score>  (374) 
5.386869423034208

>  <path>  (374) 
/opt/xchem-fragalysis-2/maxwin/BulkDock/SCRATCH/505736/C2587-P175/C2587-P175.minimised.mol

>  <scratch_subdir>  (374) 
/opt/xchem-fragalysis-2/maxwin/BulkDock/SCRATCH/505736/C2587-P175

>  <fragmenstein_runtime>  (374) 
52.171382188797

>  <fragmenstein_outcome>  (374) 
too moved

>  <fragmenstein_mode>  (374) 
expansion

>  <fragmenstein_error>  (374) 


$$$$
C2587-P25
     RDKit          3D

 70 75  0  0  0  0  0  0  0  0999 V2000
    8.9079   -7.6669   36.8257 C   0  0  0  0  0  0  0  0  0  0  0  0
    7.8197   -6.9537   37.3979 O   0  0  0  0  0  0  0  0  0  0  0  0
    6.8677   -6.4495   36.5534 C   0  0  0  0  0  0  0  0  0  0  0  0
    6.9081   -6.5900   35.1612 C   0  0  0  0  0  0  0  0  0  0  0  0
    5.8715   -6.0970   34.3602 C   0  0  0  0  0  0  0  0  0  0  0  0
    4.7670   -5.4587   34.9350 C   0  0  0  0  0  0  0  0  0  0  0  0
    3.6736   -4.9661   34.0755 C   0  0  0  0  0  0  0  0  0  0  0  0
    3.9037   -4.0896   32.9230 C   0  0  0  0  0  0  0  0  0  0  0  0
    2.9371   -3.7268   32.0417 C   0  0  0  0  0  0  0  0  0  0  0  0
    3.3338   -2.8181   30.8676 C   0  0  0  0  0  0  0  0  0  0  0  0
    3.8786   -3.5913   29.7386 N   0  0  0  0  0  0  0  0  0  0  0  0
    3.1453   -3.5014   28.4544 C   0  0  0  0  0  0  0  0  0  0  0  0
    1.3474   -3.5268   28.6415 S   0  0  0  0  0  0  0  0  0  0  0  0
    3.7447   -2.0604   27.5604 Cl  0  0  0  0  0  0  0  0  0  0  0  0
    3.5781   -4.7656   27.5283 C   0  0  0  0  0  0  0  0  0  0  0  0
    2.8398   -5.1667   26.6729 O   0  0  0  0  0  0  0  0  0  0  0  0
    4.8720   -5.2396   27.9496 N   0  0  0  0  0  0  0  0  0  0  0  0
    5.7282   -6.2881   27.4103 C   0  0  0  0  0  0  0  0  0  0  0  0
    6.6046   -6.8648   28.5715 C   0  0  0  0  0  0  0  0  0  0  0  0
    6.5741   -6.4355   29.8175 N   0  0  0  0  0  0  0  0  0  0  0  0
    7.5352   -7.1257   30.5211 N   0  0  0  0  0  0  0  0  0  0  0  0
    8.1414   -7.9430   29.6834 C   0  0  0  0  0  0  0  0  0  0  0  0
    9.2777   -8.7576   29.9762 C   0  0  0  0  0  0  0  0  0  0  0  0
    9.9575   -8.8190   31.1768 C   0  0  0  0  0  0  0  0  0  0  0  0
   11.0756   -9.7023   31.1279 C   0  0  0  0  0  0  0  0  0  0  0  0
   11.2082  -10.2956   29.8925 C   0  0  0  0  0  0  0  0  0  0  0  0
    9.9985   -9.7782   28.8013 S   0  0  0  0  0  0  0  0  0  0  0  0
    7.5384   -7.8521   28.4615 N   0  0  0  0  0  0  0  0  0  0  0  0
    6.5295   -5.8340   26.1714 C   0  0  0  0  0  0  0  0  0  0  0  0
    6.2268   -7.1894   25.5113 C   0  0  0  0  0  0  0  0  0  0  0  0
    5.0676   -7.3644   26.5075 C   0  0  0  0  0  0  0  0  0  0  0  0
    1.6073   -4.2229   32.2970 C   0  0  0  0  0  0  0  0  0  0  0  0
    0.4712   -4.1207   31.6411 N   0  0  0  0  0  0  0  0  0  0  0  0
   -0.5063   -4.7772   32.3511 N   0  0  0  0  0  0  0  0  0  0  0  0
    0.0354   -5.2385   33.4537 C   0  0  0  0  0  0  0  0  0  0  0  0
   -0.6069   -5.8166   34.4958 N   0  0  0  0  0  0  0  0  0  0  0  0
    1.3946   -4.9854   33.4379 N   0  0  0  0  0  0  0  0  0  0  0  0
    2.4085   -5.3685   34.3113 C   0  0  0  0  0  0  0  0  0  0  0  0
    4.7303   -5.3054   36.3240 C   0  0  0  0  0  0  0  0  0  0  0  0
    5.7762   -5.7767   37.1301 C   0  0  0  0  0  0  0  0  0  0  0  0
    5.5735   -5.5619   38.4709 O   0  0  0  0  0  0  0  0  0  0  0  0
    6.7314   -5.1892   39.2122 C   0  0  0  0  0  0  0  0  0  0  0  0
    9.5548   -8.0001   37.6429 H   0  0  0  0  0  0  0  0  0  0  0  0
    8.5605   -8.5581   36.2928 H   0  0  0  0  0  0  0  0  0  0  0  0
    9.5039   -7.0203   36.1733 H   0  0  0  0  0  0  0  0  0  0  0  0
    7.7307   -7.0874   34.6571 H   0  0  0  0  0  0  0  0  0  0  0  0
    5.9390   -6.2307   33.2803 H   0  0  0  0  0  0  0  0  0  0  0  0
    4.9258   -3.7386   32.7826 H   0  0  0  0  0  0  0  0  0  0  0  0
    4.1364   -2.1474   31.2022 H   0  0  0  0  0  0  0  0  0  0  0  0
    2.5114   -2.1410   30.6147 H   0  0  0  0  0  0  0  0  0  0  0  0
    3.8183   -4.5693   30.0065 H   0  0  0  0  0  0  0  0  0  0  0  0
    1.1057   -2.5113   27.8006 H   0  0  0  0  0  0  0  0  0  0  0  0
    5.2470   -4.6004   28.6542 H   0  0  0  0  0  0  0  0  0  0  0  0
    9.6700   -8.2414   32.0482 H   0  0  0  0  0  0  0  0  0  0  0  0
   11.7486   -9.8902   31.9561 H   0  0  0  0  0  0  0  0  0  0  0  0
   11.9616  -11.0042   29.5749 H   0  0  0  0  0  0  0  0  0  0  0  0
    7.7968   -8.3639   27.6315 H   0  0  0  0  0  0  0  0  0  0  0  0
    6.0842   -4.9853   25.6402 H   0  0  0  0  0  0  0  0  0  0  0  0
    7.5904   -5.6269   26.3375 H   0  0  0  0  0  0  0  0  0  0  0  0
    7.0277   -7.9280   25.6184 H   0  0  0  0  0  0  0  0  0  0  0  0
    5.9408   -7.1493   24.4593 H   0  0  0  0  0  0  0  0  0  0  0  0
    4.1010   -7.1085   26.0670 H   0  0  0  0  0  0  0  0  0  0  0  0
    4.9817   -8.3685   26.9287 H   0  0  0  0  0  0  0  0  0  0  0  0
   -0.2198   -5.6687   35.4228 H   0  0  0  0  0  0  0  0  0  0  0  0
   -1.5962   -5.5458   34.5089 H   0  0  0  0  0  0  0  0  0  0  0  0
    2.1271   -6.0181   35.1310 H   0  0  0  0  0  0  0  0  0  0  0  0
    3.8936   -4.7996   36.8011 H   0  0  0  0  0  0  0  0  0  0  0  0
    6.3981   -4.5861   40.0627 H   0  0  0  0  0  0  0  0  0  0  0  0
    7.4270   -4.5767   38.6276 H   0  0  0  0  0  0  0  0  0  0  0  0
    7.2267   -6.0767   39.6165 H   0  0  0  0  0  0  0  0  0  0  0  0
  1  2  1  0
  2  3  1  0
  3  4  2  0
  4  5  1  0
  5  6  2  0
  6  7  1  0
  7  8  1  0
  8  9  2  0
  9 10  1  0
 10 11  1  0
 11 12  1  0
 12 13  1  0
 12 14  1  0
 12 15  1  0
 15 16  2  0
 15 17  1  0
 17 18  1  0
 18 19  1  0
 19 20  2  0
 20 21  1  0
 21 22  2  0
 22 23  1  0
 23 24  2  0
 24 25  1  0
 25 26  2  0
 26 27  1  0
 22 28  1  0
 18 29  1  0
 29 30  1  0
 30 31  1  0
  9 32  1  0
 32 33  2  0
 33 34  1  0
 34 35  2  0
 35 36  1  0
 35 37  1  0
 37 38  1  0
  6 39  1  0
 39 40  2  0
 40 41  1  0
 41 42  1  0
 40  3  1  0
 38  7  2  0
 31 18  1  0
 37 32  1  0
 28 19  1  0
 27 23  1  0
  1 43  1  0
  1 44  1  0
  1 45  1  0
  4 46  1  0
  5 47  1  0
  8 48  1  0
 10 49  1  0
 10 50  1  0
 11 51  1  0
 13 52  1  0
 17 53  1  0
 24 54  1  0
 25 55  1  0
 26 56  1  0
 28 57  1  0
 29 58  1  0
 29 59  1  0
 30 60  1  0
 30 61  1  0
 31 62  1  0
 31 63  1  0
 36 64  1  0
 36 65  1  0
 38 66  1  0
 39 67  1  0
 42 68  1  0
 42 69  1  0
 42 70  1  0
M  END
>  <Energy>  (375) 
115.0139926827916

>  <compound_id>  (375) 
2587

>  <target_id>  (375) 
1

>  <reference_id>  (375) 
25

>  <inspiration_ids>  (375) 
[175, 25]

>  <energy_score>  (375) 
-86.70335055110968

>  <distance_score>  (375) 
6.050908915958689

>  <path>  (375) 
/opt/xchem-fragalysis-2/maxwin/BulkDock/SCRATCH/505736/C2587-P25/C2587-P25.minimised.mol

>  <scratch_subdir>  (375) 
/opt/xchem-fragalysis-2/maxwin/BulkDock/SCRATCH/505736/C2587-P25

>  <fragmenstein_runtime>  (375) 
42.513733863830566

>  <fragmenstein_outcome>  (375) 
too moved

>  <fragmenstein_mode>  (375) 
expansion

>  <fragmenstein_error>  (375) 


$$$$
C2588-P175
     RDKit          3D

 68 72  0  0  0  0  0  0  0  0999 V2000
    6.0597   -3.9049   35.0094 C   0  0  0  0  0  0  0  0  0  0  0  0
    5.8489   -3.7342   33.5401 N   0  0  0  0  0  0  0  0  0  0  0  0
    4.7567   -2.7749   34.0319 C   0  0  0  0  0  0  0  0  0  0  0  0
    3.4112   -3.3963   34.3939 C   0  0  0  0  0  0  0  0  0  0  0  0
    2.6140   -2.7930   35.3797 C   0  0  0  0  0  0  0  0  0  0  0  0
    1.3670   -3.3248   35.7061 C   0  0  0  0  0  0  0  0  0  0  0  0
    0.9010   -4.4583   35.0462 C   0  0  0  0  0  0  0  0  0  0  0  0
    1.6785   -5.0595   34.0573 C   0  0  0  0  0  0  0  0  0  0  0  0
    2.9258   -4.5297   33.7274 C   0  0  0  0  0  0  0  0  0  0  0  0
    6.6589   -3.0923   32.5487 C   0  0  0  0  0  0  0  0  0  0  0  0
    7.6704   -2.4496   32.6616 O   0  0  0  0  0  0  0  0  0  0  0  0
    6.1180   -3.4063   31.1523 C   0  0  0  0  0  0  0  0  0  0  0  0
    5.3406   -2.3168   30.6008 N   0  0  0  0  0  0  0  0  0  0  0  0
    5.7085   -1.0034   30.5781 C   0  0  0  0  0  0  0  0  0  0  0  0
    4.7224   -0.2804   30.1038 N   0  0  0  0  0  0  0  0  0  0  0  0
    3.7130   -1.1365   29.7503 N   0  0  0  0  0  0  0  0  0  0  0  0
    4.1077   -2.3699   29.9970 C   0  0  0  0  0  0  0  0  0  0  0  0
    3.3335   -3.6029   29.6845 C   0  0  0  0  0  0  0  0  0  0  0  0
    2.4419   -3.4475   28.4444 C   0  0  0  0  0  0  0  0  0  0  0  0
    3.2023   -3.9814   26.8613 S   0  0  0  0  0  0  0  0  0  0  0  0
    4.5051   -2.6705   26.6587 C   0  0  0  0  0  0  0  0  0  0  0  0
    4.6156   -2.1494   24.9368 Cl  0  0  0  0  0  0  0  0  0  0  0  0
    5.8877   -3.2389   27.0996 C   0  0  0  0  0  0  0  0  0  0  0  0
    6.6204   -2.5404   27.7432 O   0  0  0  0  0  0  0  0  0  0  0  0
    6.0477   -4.6028   26.6375 N   0  0  0  0  0  0  0  0  0  0  0  0
    7.0969   -5.5767   26.8886 C   0  0  0  0  0  0  0  0  0  0  0  0
    6.7952   -6.4952   28.1168 C   0  0  0  0  0  0  0  0  0  0  0  0
    6.5040   -6.0518   29.3189 N   0  0  0  0  0  0  0  0  0  0  0  0
    6.9787   -6.9849   30.2098 N   0  0  0  0  0  0  0  0  0  0  0  0
    7.4308   -8.0187   29.5276 C   0  0  0  0  0  0  0  0  0  0  0  0
    8.1257   -9.1539   30.0483 C   0  0  0  0  0  0  0  0  0  0  0  0
    8.4621   -9.3881   31.3666 C   0  0  0  0  0  0  0  0  0  0  0  0
    9.1727  -10.6118   31.5405 C   0  0  0  0  0  0  0  0  0  0  0  0
    9.3633  -11.2709   30.3473 C   0  0  0  0  0  0  0  0  0  0  0  0
    8.6852  -10.4168   29.0317 S   0  0  0  0  0  0  0  0  0  0  0  0
    7.1673   -7.8092   28.2046 N   0  0  0  0  0  0  0  0  0  0  0  0
    8.5311   -4.9919   27.0171 C   0  0  0  0  0  0  0  0  0  0  0  0
    9.0316   -6.1834   26.1762 C   0  0  0  0  0  0  0  0  0  0  0  0
    7.5869   -6.3365   25.6293 C   0  0  0  0  0  0  0  0  0  0  0  0
    6.8822   -4.6353   35.0481 H   0  0  0  0  0  0  0  0  0  0  0  0
    6.5074   -3.0347   35.5126 H   0  0  0  0  0  0  0  0  0  0  0  0
    5.2603   -4.4060   35.5683 H   0  0  0  0  0  0  0  0  0  0  0  0
    4.4970   -2.1752   33.1468 H   0  0  0  0  0  0  0  0  0  0  0  0
    5.0885   -1.9741   34.7172 H   0  0  0  0  0  0  0  0  0  0  0  0
    2.9557   -1.8980   35.8962 H   0  0  0  0  0  0  0  0  0  0  0  0
    0.7535   -2.8489   36.4676 H   0  0  0  0  0  0  0  0  0  0  0  0
   -0.0775   -4.8635   35.2943 H   0  0  0  0  0  0  0  0  0  0  0  0
    1.3032   -5.9363   33.5375 H   0  0  0  0  0  0  0  0  0  0  0  0
    3.5193   -5.0040   32.9506 H   0  0  0  0  0  0  0  0  0  0  0  0
    5.5010   -4.3075   31.1893 H   0  0  0  0  0  0  0  0  0  0  0  0
    6.9587   -3.5900   30.4756 H   0  0  0  0  0  0  0  0  0  0  0  0
    6.6670   -0.6338   30.9181 H   0  0  0  0  0  0  0  0  0  0  0  0
    3.9828   -4.4777   29.5771 H   0  0  0  0  0  0  0  0  0  0  0  0
    2.6854   -3.7961   30.5487 H   0  0  0  0  0  0  0  0  0  0  0  0
    2.0379   -2.4369   28.3252 H   0  0  0  0  0  0  0  0  0  0  0  0
    1.5782   -4.1090   28.5732 H   0  0  0  0  0  0  0  0  0  0  0  0
    4.2532   -1.7798   27.2347 H   0  0  0  0  0  0  0  0  0  0  0  0
    5.2575   -4.8470   26.0453 H   0  0  0  0  0  0  0  0  0  0  0  0
    8.2118   -8.7083   32.1732 H   0  0  0  0  0  0  0  0  0  0  0  0
    9.5266  -10.9880   32.4929 H   0  0  0  0  0  0  0  0  0  0  0  0
    9.8642  -12.2168   30.1866 H   0  0  0  0  0  0  0  0  0  0  0  0
    7.5099   -8.3931   27.4571 H   0  0  0  0  0  0  0  0  0  0  0  0
    8.9538   -4.9407   28.0268 H   0  0  0  0  0  0  0  0  0  0  0  0
    8.6760   -4.0078   26.5639 H   0  0  0  0  0  0  0  0  0  0  0  0
    9.8311   -5.9493   25.4735 H   0  0  0  0  0  0  0  0  0  0  0  0
    9.3748   -7.0348   26.7757 H   0  0  0  0  0  0  0  0  0  0  0  0
    7.3781   -5.8169   24.6894 H   0  0  0  0  0  0  0  0  0  0  0  0
    7.2449   -7.3675   25.4964 H   0  0  0  0  0  0  0  0  0  0  0  0
  1  2  1  0
  2  3  1  0
  3  4  1  0
  4  5  2  0
  5  6  1  0
  6  7  2  0
  7  8  1  0
  8  9  2  0
  2 10  1  0
 10 11  2  0
 10 12  1  0
 12 13  1  0
 13 14  1  0
 14 15  2  0
 15 16  1  0
 16 17  2  0
 17 18  1  0
 18 19  1  0
 19 20  1  0
 20 21  1  0
 21 22  1  0
 21 23  1  0
 23 24  2  0
 23 25  1  0
 25 26  1  0
 26 27  1  0
 27 28  2  0
 28 29  1  0
 29 30  2  0
 30 31  1  0
 31 32  2  0
 32 33  1  0
 33 34  2  0
 34 35  1  0
 30 36  1  0
 26 37  1  0
 37 38  1  0
 38 39  1  0
  9  4  1  0
 17 13  1  0
 39 26  1  0
 36 27  1  0
 35 31  1  0
  1 40  1  0
  1 41  1  0
  1 42  1  0
  3 43  1  0
  3 44  1  0
  5 45  1  0
  6 46  1  0
  7 47  1  0
  8 48  1  0
  9 49  1  0
 12 50  1  0
 12 51  1  0
 14 52  1  0
 18 53  1  0
 18 54  1  0
 19 55  1  0
 19 56  1  0
 21 57  1  0
 25 58  1  0
 32 59  1  0
 33 60  1  0
 34 61  1  0
 36 62  1  0
 37 63  1  0
 37 64  1  0
 38 65  1  0
 38 66  1  0
 39 67  1  0
 39 68  1  0
M  END
>  <Energy>  (376) 
125.95193135015693

>  <compound_id>  (376) 
2588

>  <target_id>  (376) 
1

>  <reference_id>  (376) 
175

>  <inspiration_ids>  (376) 
[175, 41]

>  <energy_score>  (376) 
10.19102842013524

>  <distance_score>  (376) 
5.937134546869911

>  <path>  (376) 
/opt/xchem-fragalysis-2/maxwin/BulkDock/SCRATCH/505736/C2588-P175/C2588-P175.minimised.mol

>  <scratch_subdir>  (376) 
/opt/xchem-fragalysis-2/maxwin/BulkDock/SCRATCH/505736/C2588-P175

>  <fragmenstein_runtime>  (376) 
30.10957646369934

>  <fragmenstein_outcome>  (376) 
too moved

>  <fragmenstein_mode>  (376) 
expansion

>  <fragmenstein_error>  (376) 


$$$$
C2588-P41
     RDKit          3D

 68 72  0  0  0  0  0  0  0  0999 V2000
   -1.5507   -1.8076   34.6023 C   0  0  0  0  0  0  0  0  0  0  0  0
   -0.7963   -2.2695   33.3986 N   0  0  0  0  0  0  0  0  0  0  0  0
   -0.2796   -3.3122   34.3956 C   0  0  0  0  0  0  0  0  0  0  0  0
    0.9605   -2.9389   35.1915 C   0  0  0  0  0  0  0  0  0  0  0  0
    1.0043   -3.1950   36.5708 C   0  0  0  0  0  0  0  0  0  0  0  0
    2.1529   -2.9059   37.3083 C   0  0  0  0  0  0  0  0  0  0  0  0
    3.2709   -2.3683   36.6749 C   0  0  0  0  0  0  0  0  0  0  0  0
    3.2422   -2.1173   35.3046 C   0  0  0  0  0  0  0  0  0  0  0  0
    2.0934   -2.4013   34.5648 C   0  0  0  0  0  0  0  0  0  0  0  0
   -1.2482   -2.9130   32.2032 C   0  0  0  0  0  0  0  0  0  0  0  0
   -2.3378   -3.3278   31.9004 O   0  0  0  0  0  0  0  0  0  0  0  0
   -0.1205   -2.9388   31.1898 C   0  0  0  0  0  0  0  0  0  0  0  0
    0.4311   -4.2461   30.9014 N   0  0  0  0  0  0  0  0  0  0  0  0
    0.0069   -5.4683   31.3203 C   0  0  0  0  0  0  0  0  0  0  0  0
    0.8072   -6.3975   30.8537 N   0  0  0  0  0  0  0  0  0  0  0  0
    1.7609   -5.7777   30.0859 N   0  0  0  0  0  0  0  0  0  0  0  0
    1.5270   -4.4812   30.1071 C   0  0  0  0  0  0  0  0  0  0  0  0
    2.2545   -3.4388   29.3277 C   0  0  0  0  0  0  0  0  0  0  0  0
    3.7670   -3.5333   29.5257 C   0  0  0  0  0  0  0  0  0  0  0  0
    4.7287   -2.4210   28.4138 S   0  0  0  0  0  0  0  0  0  0  0  0
    4.1176   -2.9706   26.7975 C   0  0  0  0  0  0  0  0  0  0  0  0
    4.9390   -2.2460   25.3766 Cl  0  0  0  0  0  0  0  0  0  0  0  0
    4.1392   -4.5009   26.6523 C   0  0  0  0  0  0  0  0  0  0  0  0
    3.1659   -5.0629   26.2255 O   0  0  0  0  0  0  0  0  0  0  0  0
    5.4192   -5.0193   27.0698 N   0  0  0  0  0  0  0  0  0  0  0  0
    5.9690   -6.3693   27.0164 C   0  0  0  0  0  0  0  0  0  0  0  0
    6.4349   -6.8682   28.4077 C   0  0  0  0  0  0  0  0  0  0  0  0
    6.3293   -6.1926   29.5309 N   0  0  0  0  0  0  0  0  0  0  0  0
    7.1931   -6.7656   30.4397 N   0  0  0  0  0  0  0  0  0  0  0  0
    7.7958   -7.7747   29.8454 C   0  0  0  0  0  0  0  0  0  0  0  0
    8.9038   -8.5175   30.3531 C   0  0  0  0  0  0  0  0  0  0  0  0
    9.3910   -8.4978   31.6444 C   0  0  0  0  0  0  0  0  0  0  0  0
   10.5346   -9.3338   31.8090 C   0  0  0  0  0  0  0  0  0  0  0  0
   10.8917   -9.9571   30.6343 C   0  0  0  0  0  0  0  0  0  0  0  0
    9.8487   -9.5376   29.3470 S   0  0  0  0  0  0  0  0  0  0  0  0
    7.2286   -7.9611   28.6175 N   0  0  0  0  0  0  0  0  0  0  0  0
    7.1462   -6.4115   25.9993 C   0  0  0  0  0  0  0  0  0  0  0  0
    6.0824   -6.7298   24.9404 C   0  0  0  0  0  0  0  0  0  0  0  0
    5.2657   -7.3808   26.0785 C   0  0  0  0  0  0  0  0  0  0  0  0
   -2.3563   -2.4666   34.9458 H   0  0  0  0  0  0  0  0  0  0  0  0
   -0.9435   -1.3659   35.4021 H   0  0  0  0  0  0  0  0  0  0  0  0
   -2.1149   -0.9464   34.2134 H   0  0  0  0  0  0  0  0  0  0  0  0
    0.1033   -4.1281   33.7641 H   0  0  0  0  0  0  0  0  0  0  0  0
   -1.0337   -3.8766   34.9725 H   0  0  0  0  0  0  0  0  0  0  0  0
    0.1452   -3.6244   37.0828 H   0  0  0  0  0  0  0  0  0  0  0  0
    2.1778   -3.1041   38.3771 H   0  0  0  0  0  0  0  0  0  0  0  0
    4.1664   -2.1451   37.2495 H   0  0  0  0  0  0  0  0  0  0  0  0
    4.1171   -1.6995   34.8122 H   0  0  0  0  0  0  0  0  0  0  0  0
    2.0937   -2.2001   33.4977 H   0  0  0  0  0  0  0  0  0  0  0  0
   -0.5038   -2.5302   30.2474 H   0  0  0  0  0  0  0  0  0  0  0  0
    0.7044   -2.2999   31.5225 H   0  0  0  0  0  0  0  0  0  0  0  0
   -0.8564   -5.6428   31.9468 H   0  0  0  0  0  0  0  0  0  0  0  0
    1.9700   -3.6019   28.2850 H   0  0  0  0  0  0  0  0  0  0  0  0
    1.9218   -2.4287   29.5868 H   0  0  0  0  0  0  0  0  0  0  0  0
    4.1225   -4.5593   29.3984 H   0  0  0  0  0  0  0  0  0  0  0  0
    4.0188   -3.2513   30.5548 H   0  0  0  0  0  0  0  0  0  0  0  0
    3.0898   -2.6266   26.7711 H   0  0  0  0  0  0  0  0  0  0  0  0
    5.9769   -4.2566   27.4557 H   0  0  0  0  0  0  0  0  0  0  0  0
    8.9459   -7.9038   32.4354 H   0  0  0  0  0  0  0  0  0  0  0  0
   11.0716   -9.4629   32.7412 H   0  0  0  0  0  0  0  0  0  0  0  0
   11.7165  -10.6376   30.4700 H   0  0  0  0  0  0  0  0  0  0  0  0
    7.5285   -8.6376   27.9315 H   0  0  0  0  0  0  0  0  0  0  0  0
    7.6984   -5.4756   25.8925 H   0  0  0  0  0  0  0  0  0  0  0  0
    7.8772   -7.2201   26.1216 H   0  0  0  0  0  0  0  0  0  0  0  0
    5.6315   -5.8340   24.5152 H   0  0  0  0  0  0  0  0  0  0  0  0
    6.4149   -7.3667   24.1340 H   0  0  0  0  0  0  0  0  0  0  0  0
    5.5288   -8.4314   26.2490 H   0  0  0  0  0  0  0  0  0  0  0  0
    4.1801   -7.3219   25.9802 H   0  0  0  0  0  0  0  0  0  0  0  0
  1  2  1  0
  2  3  1  0
  3  4  1  0
  4  5  2  0
  5  6  1  0
  6  7  2  0
  7  8  1  0
  8  9  2  0
  2 10  1  0
 10 11  2  0
 10 12  1  0
 12 13  1  0
 13 14  1  0
 14 15  2  0
 15 16  1  0
 16 17  2  0
 17 18  1  0
 18 19  1  0
 19 20  1  0
 20 21  1  0
 21 22  1  0
 21 23  1  0
 23 24  2  0
 23 25  1  0
 25 26  1  0
 26 27  1  0
 27 28  2  0
 28 29  1  0
 29 30  2  0
 30 31  1  0
 31 32  2  0
 32 33  1  0
 33 34  2  0
 34 35  1  0
 30 36  1  0
 26 37  1  0
 37 38  1  0
 38 39  1  0
  9  4  1  0
 17 13  1  0
 39 26  1  0
 36 27  1  0
 35 31  1  0
  1 40  1  0
  1 41  1  0
  1 42  1  0
  3 43  1  0
  3 44  1  0
  5 45  1  0
  6 46  1  0
  7 47  1  0
  8 48  1  0
  9 49  1  0
 12 50  1  0
 12 51  1  0
 14 52  1  0
 18 53  1  0
 18 54  1  0
 19 55  1  0
 19 56  1  0
 21 57  1  0
 25 58  1  0
 32 59  1  0
 33 60  1  0
 34 61  1  0
 36 62  1  0
 37 63  1  0
 37 64  1  0
 38 65  1  0
 38 66  1  0
 39 67  1  0
 39 68  1  0
M  END
>  <Energy>  (377) 
136.63307054981215

>  <compound_id>  (377) 
2588

>  <target_id>  (377) 
1

>  <reference_id>  (377) 
41

>  <inspiration_ids>  (377) 
[175, 41]

>  <energy_score>  (377) 
20.872167619798574

>  <distance_score>  (377) 
5.258275640023513

>  <path>  (377) 
/opt/xchem-fragalysis-2/maxwin/BulkDock/SCRATCH/505736/C2588-P41/C2588-P41.minimised.mol

>  <scratch_subdir>  (377) 
/opt/xchem-fragalysis-2/maxwin/BulkDock/SCRATCH/505736/C2588-P41

>  <fragmenstein_runtime>  (377) 
27.469979763031006

>  <fragmenstein_outcome>  (377) 
too moved

>  <fragmenstein_mode>  (377) 
expansion

>  <fragmenstein_error>  (377) 


$$$$
C2588-P175
     RDKit          3D

 68 72  0  0  0  0  0  0  0  0999 V2000
    3.0269   -3.6257   33.5878 C   0  0  0  0  0  0  0  0  0  0  0  0
    1.6734   -4.2511   33.3466 N   0  0  0  0  0  0  0  0  0  0  0  0
    2.0134   -4.9595   34.6342 C   0  0  0  0  0  0  0  0  0  0  0  0
    1.4224   -4.3308   35.8814 C   0  0  0  0  0  0  0  0  0  0  0  0
    2.2238   -4.1045   37.0101 C   0  0  0  0  0  0  0  0  0  0  0  0
    1.6707   -3.5641   38.1720 C   0  0  0  0  0  0  0  0  0  0  0  0
    0.3133   -3.2524   38.2202 C   0  0  0  0  0  0  0  0  0  0  0  0
   -0.4928   -3.4747   37.1058 C   0  0  0  0  0  0  0  0  0  0  0  0
    0.0577   -4.0095   35.9409 C   0  0  0  0  0  0  0  0  0  0  0  0
    1.5891   -4.7394   32.0107 C   0  0  0  0  0  0  0  0  0  0  0  0
    1.8550   -5.8213   31.5554 O   0  0  0  0  0  0  0  0  0  0  0  0
    0.9913   -3.6666   31.1011 C   0  0  0  0  0  0  0  0  0  0  0  0
    1.9808   -2.9807   30.2961 N   0  0  0  0  0  0  0  0  0  0  0  0
    2.2094   -1.6367   30.3159 C   0  0  0  0  0  0  0  0  0  0  0  0
    3.1561   -1.3392   29.4597 N   0  0  0  0  0  0  0  0  0  0  0  0
    3.5430   -2.5029   28.8462 N   0  0  0  0  0  0  0  0  0  0  0  0
    2.8221   -3.4901   29.3382 C   0  0  0  0  0  0  0  0  0  0  0  0
    2.9144   -4.9226   28.9457 C   0  0  0  0  0  0  0  0  0  0  0  0
    3.5121   -5.0929   27.5506 C   0  0  0  0  0  0  0  0  0  0  0  0
    3.5051   -6.8618   27.0966 S   0  0  0  0  0  0  0  0  0  0  0  0
    4.6300   -6.8162   25.6198 C   0  0  0  0  0  0  0  0  0  0  0  0
    4.0045   -7.9545   24.4128 Cl  0  0  0  0  0  0  0  0  0  0  0  0
    6.0444   -7.2038   26.1357 C   0  0  0  0  0  0  0  0  0  0  0  0
    6.3966   -8.3483   26.1666 O   0  0  0  0  0  0  0  0  0  0  0  0
    6.7005   -6.0022   26.6083 N   0  0  0  0  0  0  0  0  0  0  0  0
    7.9324   -5.8220   27.3460 C   0  0  0  0  0  0  0  0  0  0  0  0
    7.8615   -6.6323   28.6692 C   0  0  0  0  0  0  0  0  0  0  0  0
    7.6228   -6.1596   29.8708 N   0  0  0  0  0  0  0  0  0  0  0  0
    7.8092   -7.1986   30.7594 N   0  0  0  0  0  0  0  0  0  0  0  0
    8.1236   -8.2769   30.0675 C   0  0  0  0  0  0  0  0  0  0  0  0
    8.5160   -9.5427   30.5966 C   0  0  0  0  0  0  0  0  0  0  0  0
    8.4818   -9.9346   31.9191 C   0  0  0  0  0  0  0  0  0  0  0  0
    8.9873  -11.2538   32.1093 C   0  0  0  0  0  0  0  0  0  0  0  0
    9.3979  -11.8245   30.9259 C   0  0  0  0  0  0  0  0  0  0  0  0
    9.1612  -10.7773   29.5978 S   0  0  0  0  0  0  0  0  0  0  0  0
    8.0511   -7.9811   28.7397 N   0  0  0  0  0  0  0  0  0  0  0  0
    8.3886   -4.3533   27.4786 C   0  0  0  0  0  0  0  0  0  0  0  0
    9.8195   -4.8188   27.1522 C   0  0  0  0  0  0  0  0  0  0  0  0
    9.2191   -6.0968   26.5410 C   0  0  0  0  0  0  0  0  0  0  0  0
    3.1405   -3.0558   34.5204 H   0  0  0  0  0  0  0  0  0  0  0  0
    3.1279   -2.8478   32.8196 H   0  0  0  0  0  0  0  0  0  0  0  0
    3.8659   -4.3040   33.3642 H   0  0  0  0  0  0  0  0  0  0  0  0
    1.4351   -5.8937   34.5263 H   0  0  0  0  0  0  0  0  0  0  0  0
    3.0194   -5.3985   34.7683 H   0  0  0  0  0  0  0  0  0  0  0  0
    3.2837   -4.3497   36.9972 H   0  0  0  0  0  0  0  0  0  0  0  0
    2.2971   -3.3889   39.0435 H   0  0  0  0  0  0  0  0  0  0  0  0
   -0.1177   -2.8347   39.1269 H   0  0  0  0  0  0  0  0  0  0  0  0
   -1.5513   -3.2285   37.1435 H   0  0  0  0  0  0  0  0  0  0  0  0
   -0.5885   -4.1762   35.0812 H   0  0  0  0  0  0  0  0  0  0  0  0
    0.2722   -4.1344   30.4194 H   0  0  0  0  0  0  0  0  0  0  0  0
    0.4432   -2.9230   31.6908 H   0  0  0  0  0  0  0  0  0  0  0  0
    1.6842   -0.9364   30.9505 H   0  0  0  0  0  0  0  0  0  0  0  0
    1.9178   -5.3723   28.9818 H   0  0  0  0  0  0  0  0  0  0  0  0
    3.5492   -5.4398   29.6743 H   0  0  0  0  0  0  0  0  0  0  0  0
    2.9316   -4.5400   26.8045 H   0  0  0  0  0  0  0  0  0  0  0  0
    4.5328   -4.7051   27.5454 H   0  0  0  0  0  0  0  0  0  0  0  0
    4.6250   -5.8243   25.1655 H   0  0  0  0  0  0  0  0  0  0  0  0
    6.1476   -5.1969   26.3415 H   0  0  0  0  0  0  0  0  0  0  0  0
    8.1125   -9.2995   32.7158 H   0  0  0  0  0  0  0  0  0  0  0  0
    9.0461  -11.7581   33.0660 H   0  0  0  0  0  0  0  0  0  0  0  0
    9.8145  -12.8119   30.7754 H   0  0  0  0  0  0  0  0  0  0  0  0
    8.1990   -8.6146   27.9656 H   0  0  0  0  0  0  0  0  0  0  0  0
    7.9661   -3.6738   26.7292 H   0  0  0  0  0  0  0  0  0  0  0  0
    8.2691   -3.8842   28.4600 H   0  0  0  0  0  0  0  0  0  0  0  0
   10.3850   -4.1818   26.4680 H   0  0  0  0  0  0  0  0  0  0  0  0
   10.4313   -5.0060   28.0425 H   0  0  0  0  0  0  0  0  0  0  0  0
    9.7752   -7.0115   26.7688 H   0  0  0  0  0  0  0  0  0  0  0  0
    9.0758   -6.0634   25.4635 H   0  0  0  0  0  0  0  0  0  0  0  0
  1  2  1  0
  2  3  1  0
  3  4  1  0
  4  5  2  0
  5  6  1  0
  6  7  2  0
  7  8  1  0
  8  9  2  0
  2 10  1  0
 10 11  2  0
 10 12  1  0
 12 13  1  0
 13 14  1  0
 14 15  2  0
 15 16  1  0
 16 17  2  0
 17 18  1  0
 18 19  1  0
 19 20  1  0
 20 21  1  0
 21 22  1  0
 21 23  1  0
 23 24  2  0
 23 25  1  0
 25 26  1  0
 26 27  1  0
 27 28  2  0
 28 29  1  0
 29 30  2  0
 30 31  1  0
 31 32  2  0
 32 33  1  0
 33 34  2  0
 34 35  1  0
 30 36  1  0
 26 37  1  0
 37 38  1  0
 38 39  1  0
  9  4  1  0
 17 13  1  0
 39 26  1  0
 36 27  1  0
 35 31  1  0
  1 40  1  0
  1 41  1  0
  1 42  1  0
  3 43  1  0
  3 44  1  0
  5 45  1  0
  6 46  1  0
  7 47  1  0
  8 48  1  0
  9 49  1  0
 12 50  1  0
 12 51  1  0
 14 52  1  0
 18 53  1  0
 18 54  1  0
 19 55  1  0
 19 56  1  0
 21 57  1  0
 25 58  1  0
 32 59  1  0
 33 60  1  0
 34 61  1  0
 36 62  1  0
 37 63  1  0
 37 64  1  0
 38 65  1  0
 38 66  1  0
 39 67  1  0
 39 68  1  0
M  END
>  <Energy>  (378) 
127.95889993014387

>  <compound_id>  (378) 
2588

>  <target_id>  (378) 
1

>  <reference_id>  (378) 
175

>  <inspiration_ids>  (378) 
[175, 56]

>  <energy_score>  (378) 
15.836123736663922

>  <distance_score>  (378) 
5.3995607053332115

>  <path>  (378) 
/opt/xchem-fragalysis-2/maxwin/BulkDock/SCRATCH/505736/C2588-P175/C2588-P175.minimised.mol

>  <scratch_subdir>  (378) 
/opt/xchem-fragalysis-2/maxwin/BulkDock/SCRATCH/505736/C2588-P175

>  <fragmenstein_runtime>  (378) 
22.785109281539917

>  <fragmenstein_outcome>  (378) 
too moved

>  <fragmenstein_mode>  (378) 
expansion

>  <fragmenstein_error>  (378) 


$$$$
C2588-P56
     RDKit          3D

 68 72  0  0  0  0  0  0  0  0999 V2000
    3.7724   -4.6764   33.2943 C   0  0  0  0  0  0  0  0  0  0  0  0
    2.4313   -4.0937   33.6551 N   0  0  0  0  0  0  0  0  0  0  0  0
    2.7363   -4.7666   34.9711 C   0  0  0  0  0  0  0  0  0  0  0  0
    1.6293   -4.3516   35.9442 C   0  0  0  0  0  0  0  0  0  0  0  0
    1.8650   -3.3707   36.9193 C   0  0  0  0  0  0  0  0  0  0  0  0
    0.8603   -3.0070   37.8169 C   0  0  0  0  0  0  0  0  0  0  0  0
   -0.3942   -3.6072   37.7383 C   0  0  0  0  0  0  0  0  0  0  0  0
   -0.6434   -4.5681   36.7608 C   0  0  0  0  0  0  0  0  0  0  0  0
    0.3606   -4.9418   35.8693 C   0  0  0  0  0  0  0  0  0  0  0  0
    1.4688   -4.4111   32.6453 C   0  0  0  0  0  0  0  0  0  0  0  0
    0.7189   -5.3466   32.5458 O   0  0  0  0  0  0  0  0  0  0  0  0
    1.4411   -3.2705   31.6377 C   0  0  0  0  0  0  0  0  0  0  0  0
    0.1129   -2.8570   31.2179 N   0  0  0  0  0  0  0  0  0  0  0  0
   -1.0863   -3.1771   31.7787 C   0  0  0  0  0  0  0  0  0  0  0  0
   -2.0605   -2.6298   31.0897 N   0  0  0  0  0  0  0  0  0  0  0  0
   -1.4867   -1.8672   30.1002 N   0  0  0  0  0  0  0  0  0  0  0  0
   -0.1751   -1.9786   30.1993 C   0  0  0  0  0  0  0  0  0  0  0  0
    0.8373   -1.2135   29.4116 C   0  0  0  0  0  0  0  0  0  0  0  0
    0.8646   -1.5734   27.9259 C   0  0  0  0  0  0  0  0  0  0  0  0
    1.6698   -3.1873   27.6253 S   0  0  0  0  0  0  0  0  0  0  0  0
    2.6095   -2.9053   25.9398 C   0  0  0  0  0  0  0  0  0  0  0  0
    3.2204   -1.1607   25.5998 Cl  0  0  0  0  0  0  0  0  0  0  0  0
    3.5959   -3.9509   25.1482 C   0  0  0  0  0  0  0  0  0  0  0  0
    4.5471   -3.3544   24.7114 O   0  0  0  0  0  0  0  0  0  0  0  0
    3.3339   -5.8477   25.1201 N   0  0  0  0  0  0  0  0  0  0  0  0
    4.6446   -7.3665   24.5204 C   0  0  0  0  0  0  0  0  0  0  0  0
    5.5011   -8.4906   25.9980 C   0  0  0  0  0  0  0  0  0  0  0  0
    5.2185   -8.4990   27.2904 N   0  0  0  0  0  0  0  0  0  0  0  0
    6.1644   -9.1209   28.0406 N   0  0  0  0  0  0  0  0  0  0  0  0
    7.0696   -9.6043   27.2355 C   0  0  0  0  0  0  0  0  0  0  0  0
    8.3116  -10.1600   27.6632 C   0  0  0  0  0  0  0  0  0  0  0  0
    8.7368  -10.2743   28.9746 C   0  0  0  0  0  0  0  0  0  0  0  0
   10.0658  -10.7737   29.0766 C   0  0  0  0  0  0  0  0  0  0  0  0
   10.6044  -11.0420   27.8385 C   0  0  0  0  0  0  0  0  0  0  0  0
    9.5045  -10.7114   26.5705 S   0  0  0  0  0  0  0  0  0  0  0  0
    6.6457   -9.4031   25.9512 N   0  0  0  0  0  0  0  0  0  0  0  0
    6.5565   -7.3186   24.6954 C   0  0  0  0  0  0  0  0  0  0  0  0
    6.5901   -6.2415   23.7550 C   0  0  0  0  0  0  0  0  0  0  0  0
    5.3657   -6.9240   23.2749 C   0  0  0  0  0  0  0  0  0  0  0  0
    3.9346   -4.4046   32.2399 H   0  0  0  0  0  0  0  0  0  0  0  0
    3.8239   -5.7734   33.2746 H   0  0  0  0  0  0  0  0  0  0  0  0
    4.6204   -4.1951   33.8038 H   0  0  0  0  0  0  0  0  0  0  0  0
    2.6662   -5.8647   34.9125 H   0  0  0  0  0  0  0  0  0  0  0  0
    3.6703   -4.4445   35.4576 H   0  0  0  0  0  0  0  0  0  0  0  0
    2.8430   -2.9029   36.9990 H   0  0  0  0  0  0  0  0  0  0  0  0
    1.0581   -2.2561   38.5763 H   0  0  0  0  0  0  0  0  0  0  0  0
   -1.1807   -3.3206   38.4313 H   0  0  0  0  0  0  0  0  0  0  0  0
   -1.6249   -5.0199   36.6782 H   0  0  0  0  0  0  0  0  0  0  0  0
    0.1496   -5.6889   35.1063 H   0  0  0  0  0  0  0  0  0  0  0  0
    1.9820   -3.6047   30.7470 H   0  0  0  0  0  0  0  0  0  0  0  0
    1.9282   -2.3767   32.0433 H   0  0  0  0  0  0  0  0  0  0  0  0
   -1.2061   -3.7973   32.6576 H   0  0  0  0  0  0  0  0  0  0  0  0
    1.8407   -1.2898   29.8449 H   0  0  0  0  0  0  0  0  0  0  0  0
    0.5623   -0.1533   29.4946 H   0  0  0  0  0  0  0  0  0  0  0  0
   -0.1566   -1.6078   27.5423 H   0  0  0  0  0  0  0  0  0  0  0  0
    1.3951   -0.7740   27.4115 H   0  0  0  0  0  0  0  0  0  0  0  0
    3.4064   -2.8708   26.7022 H   0  0  0  0  0  0  0  0  0  0  0  0
    2.4307   -6.0680   25.4640 H   0  0  0  0  0  0  0  0  0  0  0  0
    8.1283   -9.9821   29.8236 H   0  0  0  0  0  0  0  0  0  0  0  0
   10.6004  -10.9218   30.0071 H   0  0  0  0  0  0  0  0  0  0  0  0
   11.5911  -11.4257   27.6161 H   0  0  0  0  0  0  0  0  0  0  0  0
    7.1055   -9.7157   25.1077 H   0  0  0  0  0  0  0  0  0  0  0  0
    7.1575   -7.4722   25.6063 H   0  0  0  0  0  0  0  0  0  0  0  0
    7.2397   -8.0398   24.2198 H   0  0  0  0  0  0  0  0  0  0  0  0
    6.4591   -5.2001   23.9596 H   0  0  0  0  0  0  0  0  0  0  0  0
    7.4847   -6.1946   23.1671 H   0  0  0  0  0  0  0  0  0  0  0  0
    4.7849   -7.7420   22.8545 H   0  0  0  0  0  0  0  0  0  0  0  0
    5.9853   -7.1618   22.4110 H   0  0  0  0  0  0  0  0  0  0  0  0
  1  2  1  0
  2  3  1  0
  3  4  1  0
  4  5  2  0
  5  6  1  0
  6  7  2  0
  7  8  1  0
  8  9  2  0
  2 10  1  0
 10 11  2  0
 10 12  1  0
 12 13  1  0
 13 14  1  0
 14 15  2  0
 15 16  1  0
 16 17  2  0
 17 18  1  0
 18 19  1  0
 19 20  1  0
 20 21  1  0
 21 22  1  0
 21 23  1  0
 23 24  2  0
 23 25  1  0
 25 26  1  0
 26 27  1  0
 27 28  2  0
 28 29  1  0
 29 30  2  0
 30 31  1  0
 31 32  2  0
 32 33  1  0
 33 34  2  0
 34 35  1  0
 30 36  1  0
 26 37  1  0
 37 38  1  0
 38 39  1  0
  9  4  1  0
 17 13  1  0
 39 26  1  0
 36 27  1  0
 35 31  1  0
  1 40  1  0
  1 41  1  0
  1 42  1  0
  3 43  1  0
  3 44  1  0
  5 45  1  0
  6 46  1  0
  7 47  1  0
  8 48  1  0
  9 49  1  0
 12 50  1  0
 12 51  1  0
 14 52  1  0
 18 53  1  0
 18 54  1  0
 19 55  1  0
 19 56  1  0
 21 57  1  0
 25 58  1  0
 32 59  1  0
 33 60  1  0
 34 61  1  0
 36 62  1  0
 37 63  1  0
 37 64  1  0
 38 65  1  0
 38 66  1  0
 39 67  1  0
 39 68  1  0
M  END
>  <Energy>  (379) 
637.60254990687338

>  <compound_id>  (379) 
2588

>  <target_id>  (379) 
1

>  <reference_id>  (379) 
56

>  <inspiration_ids>  (379) 
[175, 56]

>  <energy_score>  (379) 
525.4797737133979

>  <distance_score>  (379) 
5.27452584237882

>  <path>  (379) 
/opt/xchem-fragalysis-2/maxwin/BulkDock/SCRATCH/505736/C2588-P56/C2588-P56.minimised.mol

>  <scratch_subdir>  (379) 
/opt/xchem-fragalysis-2/maxwin/BulkDock/SCRATCH/505736/C2588-P56

>  <fragmenstein_runtime>  (379) 
25.5521719455719

>  <fragmenstein_outcome>  (379) 
too moved

>  <fragmenstein_mode>  (379) 
expansion

>  <fragmenstein_error>  (379) 


$$$$
C2589-P175
     RDKit          3D

 69 74  0  0  0  0  0  0  0  0999 V2000
    0.6871   -7.9748   38.8561 C   0  0  0  0  0  0  0  0  0  0  0  0
    0.4079   -7.8426   37.4543 N   0  0  0  0  0  0  0  0  0  0  0  0
    0.8785   -6.9059   36.4938 C   0  0  0  0  0  0  0  0  0  0  0  0
    1.5679   -5.9367   36.6198 O   0  0  0  0  0  0  0  0  0  0  0  0
    0.4455   -7.1737   35.0832 C   0  0  0  0  0  0  0  0  0  0  0  0
   -0.8245   -7.6347   34.7215 C   0  0  0  0  0  0  0  0  0  0  0  0
   -1.2155   -7.6972   33.3648 C   0  0  0  0  0  0  0  0  0  0  0  0
   -0.3626   -7.2540   32.3609 C   0  0  0  0  0  0  0  0  0  0  0  0
   -0.8754   -6.7367   31.0614 C   0  0  0  0  0  0  0  0  0  0  0  0
   -1.3339   -7.4254   29.7940 C   0  0  0  0  0  0  0  0  0  0  0  0
   -1.8032   -6.8791   28.5461 C   0  0  0  0  0  0  0  0  0  0  0  0
   -2.2802   -7.7076   26.7515 C   0  0  0  0  0  0  0  0  0  0  0  0
   -2.0469   -9.6679   26.1052 N   0  0  0  0  0  0  0  0  0  0  0  0
   -1.4991  -10.7843   27.6546 C   0  0  0  0  0  0  0  0  0  0  0  0
   -2.6339  -11.8464   28.9539 S   0  0  0  0  0  0  0  0  0  0  0  0
   -2.4572  -12.3218   26.3292 Cl  0  0  0  0  0  0  0  0  0  0  0  0
   -0.2161   -9.3330   28.0577 C   0  0  0  0  0  0  0  0  0  0  0  0
   -0.4927   -8.4796   27.4516 O   0  0  0  0  0  0  0  0  0  0  0  0
    1.3203   -8.9566   28.9219 N   0  0  0  0  0  0  0  0  0  0  0  0
    2.5335   -7.4277   28.8233 C   0  0  0  0  0  0  0  0  0  0  0  0
    4.4061   -7.1078   29.0703 C   0  0  0  0  0  0  0  0  0  0  0  0
    4.8410   -5.9972   29.6482 N   0  0  0  0  0  0  0  0  0  0  0  0
    6.2214   -6.0571   29.7101 N   0  0  0  0  0  0  0  0  0  0  0  0
    6.6061   -7.1074   29.0190 C   0  0  0  0  0  0  0  0  0  0  0  0
    7.9038   -7.7100   29.0111 C   0  0  0  0  0  0  0  0  0  0  0  0
    9.0059   -7.3012   29.7360 C   0  0  0  0  0  0  0  0  0  0  0  0
   10.1172   -8.1834   29.5902 C   0  0  0  0  0  0  0  0  0  0  0  0
    9.8346   -9.2333   28.7464 C   0  0  0  0  0  0  0  0  0  0  0  0
    8.2419   -9.1475   28.1328 S   0  0  0  0  0  0  0  0  0  0  0  0
    5.5029   -7.6081   28.3879 N   0  0  0  0  0  0  0  0  0  0  0  0
    2.0176   -6.0193   29.1388 C   0  0  0  0  0  0  0  0  0  0  0  0
    2.5531   -5.4978   27.7676 C   0  0  0  0  0  0  0  0  0  0  0  0
    2.7682   -6.9710   27.3104 C   0  0  0  0  0  0  0  0  0  0  0  0
   -1.1908   -5.2169   28.6972 C   0  0  0  0  0  0  0  0  0  0  0  0
   -0.8843   -4.2576   27.8314 N   0  0  0  0  0  0  0  0  0  0  0  0
   -0.4086   -3.1410   28.4575 N   0  0  0  0  0  0  0  0  0  0  0  0
   -0.3511   -3.4009   29.7281 C   0  0  0  0  0  0  0  0  0  0  0  0
    0.1139   -2.5913   30.7043 N   0  0  0  0  0  0  0  0  0  0  0  0
   -0.7648   -4.6957   29.9350 N   0  0  0  0  0  0  0  0  0  0  0  0
   -0.7139   -5.4071   31.0926 C   0  0  0  0  0  0  0  0  0  0  0  0
    0.9497   -6.8855   32.7357 C   0  0  0  0  0  0  0  0  0  0  0  0
    1.3439   -6.8311   34.0726 C   0  0  0  0  0  0  0  0  0  0  0  0
    1.5504   -8.6334   38.9760 H   0  0  0  0  0  0  0  0  0  0  0  0
   -0.1784   -8.3989   39.3661 H   0  0  0  0  0  0  0  0  0  0  0  0
    0.9287   -6.9928   39.2699 H   0  0  0  0  0  0  0  0  0  0  0  0
   -0.0897   -8.5918   36.9717 H   0  0  0  0  0  0  0  0  0  0  0  0
   -1.5411   -7.9309   35.4819 H   0  0  0  0  0  0  0  0  0  0  0  0
   -2.2117   -8.0416   33.1154 H   0  0  0  0  0  0  0  0  0  0  0  0
   -1.1201   -8.4695   29.9567 H   0  0  0  0  0  0  0  0  0  0  0  0
   -2.1120   -7.0292   25.9140 H   0  0  0  0  0  0  0  0  0  0  0  0
   -3.3335   -7.6475   26.9531 H   0  0  0  0  0  0  0  0  0  0  0  0
   -1.5788  -10.0294   25.2770 H   0  0  0  0  0  0  0  0  0  0  0  0
   -3.5430  -12.2407   28.0490 H   0  0  0  0  0  0  0  0  0  0  0  0
    1.5149   -9.7401   29.5629 H   0  0  0  0  0  0  0  0  0  0  0  0
    9.0064   -6.4164   30.3636 H   0  0  0  0  0  0  0  0  0  0  0  0
   11.0739   -8.0512   30.0815 H   0  0  0  0  0  0  0  0  0  0  0  0
   10.4902  -10.0441   28.4588 H   0  0  0  0  0  0  0  0  0  0  0  0
    5.5303   -8.3255   27.6869 H   0  0  0  0  0  0  0  0  0  0  0  0
    0.9756   -6.0452   29.3170 H   0  0  0  0  0  0  0  0  0  0  0  0
    2.4512   -5.5120   30.0066 H   0  0  0  0  0  0  0  0  0  0  0  0
    3.4860   -4.9250   27.8481 H   0  0  0  0  0  0  0  0  0  0  0  0
    1.9030   -4.8540   27.1740 H   0  0  0  0  0  0  0  0  0  0  0  0
    3.7388   -7.0915   26.8129 H   0  0  0  0  0  0  0  0  0  0  0  0
    2.1730   -7.5547   26.6561 H   0  0  0  0  0  0  0  0  0  0  0  0
    0.5274   -1.7330   30.3414 H   0  0  0  0  0  0  0  0  0  0  0  0
    0.6902   -2.9793   31.4424 H   0  0  0  0  0  0  0  0  0  0  0  0
   -0.4112   -4.8414   31.9687 H   0  0  0  0  0  0  0  0  0  0  0  0
    1.6449   -6.4952   31.9954 H   0  0  0  0  0  0  0  0  0  0  0  0
    2.3290   -6.4403   34.3256 H   0  0  0  0  0  0  0  0  0  0  0  0
  1  2  1  0
  2  3  1  0
  3  4  2  0
  3  5  1  0
  5  6  2  0
  6  7  1  0
  7  8  2  0
  8  9  1  0
  9 10  1  0
 10 11  2  0
 11 12  1  0
 12 13  1  0
 13 14  1  0
 14 15  1  0
 14 16  1  0
 14 17  1  0
 17 18  2  0
 17 19  1  0
 19 20  1  0
 20 21  1  0
 21 22  2  0
 22 23  1  0
 23 24  2  0
 24 25  1  0
 25 26  2  0
 26 27  1  0
 27 28  2  0
 28 29  1  0
 24 30  1  0
 20 31  1  0
 31 32  1  0
 32 33  1  0
 11 34  1  0
 34 35  2  0
 35 36  1  0
 36 37  2  0
 37 38  1  0
 37 39  1  0
 39 40  1  0
  8 41  1  0
 41 42  2  0
 42  5  1  0
 40  9  2  0
 33 20  1  0
 39 34  1  0
 30 21  1  0
 29 25  1  0
  1 43  1  0
  1 44  1  0
  1 45  1  0
  2 46  1  0
  6 47  1  0
  7 48  1  0
 10 49  1  0
 12 50  1  0
 12 51  1  0
 13 52  1  0
 15 53  1  0
 19 54  1  0
 26 55  1  0
 27 56  1  0
 28 57  1  0
 30 58  1  0
 31 59  1  0
 31 60  1  0
 32 61  1  0
 32 62  1  0
 33 63  1  0
 33 64  1  0
 38 65  1  0
 38 66  1  0
 40 67  1  0
 41 68  1  0
 42 69  1  0
M  END
>  <Energy>  (380) 
908.24484100782411

>  <compound_id>  (380) 
2589

>  <target_id>  (380) 
1

>  <reference_id>  (380) 
175

>  <inspiration_ids>  (380) 
[175, 72]

>  <energy_score>  (380) 
727.9463340253228

>  <distance_score>  (380) 
6.616871917359174

>  <path>  (380) 
/opt/xchem-fragalysis-2/maxwin/BulkDock/SCRATCH/505736/C2589-P175/C2589-P175.minimised.mol

>  <scratch_subdir>  (380) 
/opt/xchem-fragalysis-2/maxwin/BulkDock/SCRATCH/505736/C2589-P175

>  <fragmenstein_runtime>  (380) 
15.978870391845703

>  <fragmenstein_outcome>  (380) 
too moved

>  <fragmenstein_mode>  (380) 
expansion

>  <fragmenstein_error>  (380) 


$$$$
C2589-P72
     RDKit          3D

 69 74  0  0  0  0  0  0  0  0999 V2000
    6.5575   -1.7465   38.0582 C   0  0  0  0  0  0  0  0  0  0  0  0
    5.6457   -2.4652   37.2170 N   0  0  0  0  0  0  0  0  0  0  0  0
    4.5309   -3.4633   37.5748 C   0  0  0  0  0  0  0  0  0  0  0  0
    4.2267   -3.9185   38.6024 O   0  0  0  0  0  0  0  0  0  0  0  0
    3.7837   -3.8961   36.3598 C   0  0  0  0  0  0  0  0  0  0  0  0
    2.3865   -3.9245   36.4104 C   0  0  0  0  0  0  0  0  0  0  0  0
    1.6550   -4.3423   35.2957 C   0  0  0  0  0  0  0  0  0  0  0  0
    2.3142   -4.7536   34.1282 C   0  0  0  0  0  0  0  0  0  0  0  0
    1.5554   -5.2037   32.9473 C   0  0  0  0  0  0  0  0  0  0  0  0
    1.6449   -4.5454   31.6364 C   0  0  0  0  0  0  0  0  0  0  0  0
    0.9938   -4.9505   30.5081 C   0  0  0  0  0  0  0  0  0  0  0  0
    0.9619   -3.9866   29.2604 C   0  0  0  0  0  0  0  0  0  0  0  0
    1.4293   -4.2886   27.8803 N   0  0  0  0  0  0  0  0  0  0  0  0
    2.8398   -4.3918   27.5538 C   0  0  0  0  0  0  0  0  0  0  0  0
    3.8336   -3.1282   28.3048 S   0  0  0  0  0  0  0  0  0  0  0  0
    3.2242   -4.1630   25.4882 Cl  0  0  0  0  0  0  0  0  0  0  0  0
    3.4106   -5.8207   27.7637 C   0  0  0  0  0  0  0  0  0  0  0  0
    2.8489   -6.7450   28.2010 O   0  0  0  0  0  0  0  0  0  0  0  0
    4.8264   -5.7039   27.1614 N   0  0  0  0  0  0  0  0  0  0  0  0
    5.7920   -6.6969   26.8892 C   0  0  0  0  0  0  0  0  0  0  0  0
    6.4248   -7.2058   28.1731 C   0  0  0  0  0  0  0  0  0  0  0  0
    6.3403   -6.5992   29.3360 N   0  0  0  0  0  0  0  0  0  0  0  0
    7.2879   -7.1608   30.1507 N   0  0  0  0  0  0  0  0  0  0  0  0
    7.9039   -8.0960   29.4603 C   0  0  0  0  0  0  0  0  0  0  0  0
    9.0426   -8.8328   29.8729 C   0  0  0  0  0  0  0  0  0  0  0  0
    9.5492   -8.9138   31.1515 C   0  0  0  0  0  0  0  0  0  0  0  0
   10.6640   -9.7953   31.2277 C   0  0  0  0  0  0  0  0  0  0  0  0
   10.9979  -10.3144   29.9966 C   0  0  0  0  0  0  0  0  0  0  0  0
    9.9882   -9.7188   28.7552 S   0  0  0  0  0  0  0  0  0  0  0  0
    7.3047   -8.2340   28.2469 N   0  0  0  0  0  0  0  0  0  0  0  0
    6.8096   -6.1569   25.8868 C   0  0  0  0  0  0  0  0  0  0  0  0
    6.5179   -7.3524   25.0002 C   0  0  0  0  0  0  0  0  0  0  0  0
    5.3076   -7.7121   25.8487 C   0  0  0  0  0  0  0  0  0  0  0  0
    0.1621   -6.1160   30.6709 C   0  0  0  0  0  0  0  0  0  0  0  0
   -0.5758   -6.8028   29.8287 N   0  0  0  0  0  0  0  0  0  0  0  0
   -1.2797   -7.7403   30.5168 N   0  0  0  0  0  0  0  0  0  0  0  0
   -0.9545   -7.6251   31.7756 C   0  0  0  0  0  0  0  0  0  0  0  0
   -1.5272   -8.2687   32.7883 N   0  0  0  0  0  0  0  0  0  0  0  0
    0.0126   -6.6621   31.9350 N   0  0  0  0  0  0  0  0  0  0  0  0
    0.6999   -6.2342   33.0609 C   0  0  0  0  0  0  0  0  0  0  0  0
    3.7164   -4.7313   34.0901 C   0  0  0  0  0  0  0  0  0  0  0  0
    4.4511   -4.3117   35.2032 C   0  0  0  0  0  0  0  0  0  0  0  0
    7.5769   -2.0261   37.7839 H   0  0  0  0  0  0  0  0  0  0  0  0
    6.3665   -1.9964   39.1040 H   0  0  0  0  0  0  0  0  0  0  0  0
    6.4122   -0.6766   37.8937 H   0  0  0  0  0  0  0  0  0  0  0  0
    5.6831   -2.3463   36.2125 H   0  0  0  0  0  0  0  0  0  0  0  0
    1.8685   -3.6185   37.3176 H   0  0  0  0  0  0  0  0  0  0  0  0
    0.5677   -4.3384   35.3491 H   0  0  0  0  0  0  0  0  0  0  0  0
    2.2185   -3.6190   31.6219 H   0  0  0  0  0  0  0  0  0  0  0  0
    1.3648   -3.0114   29.5609 H   0  0  0  0  0  0  0  0  0  0  0  0
   -0.1093   -3.7699   29.1304 H   0  0  0  0  0  0  0  0  0  0  0  0
    0.9523   -5.1439   27.5954 H   0  0  0  0  0  0  0  0  0  0  0  0
    3.9831   -3.7444   29.4850 H   0  0  0  0  0  0  0  0  0  0  0  0
    5.0278   -4.7242   26.9512 H   0  0  0  0  0  0  0  0  0  0  0  0
    9.1167   -8.3936   31.9992 H   0  0  0  0  0  0  0  0  0  0  0  0
   11.2001  -10.0317   32.1393 H   0  0  0  0  0  0  0  0  0  0  0  0
   11.8024  -10.9996   29.7649 H   0  0  0  0  0  0  0  0  0  0  0  0
    7.5998   -8.8512   27.5043 H   0  0  0  0  0  0  0  0  0  0  0  0
    6.5167   -5.2077   25.4298 H   0  0  0  0  0  0  0  0  0  0  0  0
    7.8470   -6.0719   26.2259 H   0  0  0  0  0  0  0  0  0  0  0  0
    7.2990   -8.1153   25.0374 H   0  0  0  0  0  0  0  0  0  0  0  0
    6.2681   -7.0636   23.9800 H   0  0  0  0  0  0  0  0  0  0  0  0
    5.2722   -8.7571   26.1550 H   0  0  0  0  0  0  0  0  0  0  0  0
    4.3528   -7.4717   25.3654 H   0  0  0  0  0  0  0  0  0  0  0  0
   -1.0410   -8.5253   33.6440 H   0  0  0  0  0  0  0  0  0  0  0  0
   -2.2342   -8.9654   32.5464 H   0  0  0  0  0  0  0  0  0  0  0  0
    0.5142   -6.7656   33.9857 H   0  0  0  0  0  0  0  0  0  0  0  0
    4.2516   -5.0542   33.1992 H   0  0  0  0  0  0  0  0  0  0  0  0
    5.5372   -4.3422   35.1667 H   0  0  0  0  0  0  0  0  0  0  0  0
  1  2  1  0
  2  3  1  0
  3  4  2  0
  3  5  1  0
  5  6  2  0
  6  7  1  0
  7  8  2  0
  8  9  1  0
  9 10  1  0
 10 11  2  0
 11 12  1  0
 12 13  1  0
 13 14  1  0
 14 15  1  0
 14 16  1  0
 14 17  1  0
 17 18  2  0
 17 19  1  0
 19 20  1  0
 20 21  1  0
 21 22  2  0
 22 23  1  0
 23 24  2  0
 24 25  1  0
 25 26  2  0
 26 27  1  0
 27 28  2  0
 28 29  1  0
 24 30  1  0
 20 31  1  0
 31 32  1  0
 32 33  1  0
 11 34  1  0
 34 35  2  0
 35 36  1  0
 36 37  2  0
 37 38  1  0
 37 39  1  0
 39 40  1  0
  8 41  1  0
 41 42  2  0
 42  5  1  0
 40  9  2  0
 33 20  1  0
 39 34  1  0
 30 21  1  0
 29 25  1  0
  1 43  1  0
  1 44  1  0
  1 45  1  0
  2 46  1  0
  6 47  1  0
  7 48  1  0
 10 49  1  0
 12 50  1  0
 12 51  1  0
 13 52  1  0
 15 53  1  0
 19 54  1  0
 26 55  1  0
 27 56  1  0
 28 57  1  0
 30 58  1  0
 31 59  1  0
 31 60  1  0
 32 61  1  0
 32 62  1  0
 33 63  1  0
 33 64  1  0
 38 65  1  0
 38 66  1  0
 40 67  1  0
 41 68  1  0
 42 69  1  0
M  END
>  <Energy>  (381) 
144.87859308262313

>  <compound_id>  (381) 
2589

>  <target_id>  (381) 
1

>  <reference_id>  (381) 
72

>  <inspiration_ids>  (381) 
[175, 72]

>  <energy_score>  (381) 
-44.21051059978316

>  <distance_score>  (381) 
5.2316457190634

>  <path>  (381) 
/opt/xchem-fragalysis-2/maxwin/BulkDock/SCRATCH/505736/C2589-P72/C2589-P72.minimised.mol

>  <scratch_subdir>  (381) 
/opt/xchem-fragalysis-2/maxwin/BulkDock/SCRATCH/505736/C2589-P72

>  <fragmenstein_runtime>  (381) 
12.334280252456665

>  <fragmenstein_outcome>  (381) 
too moved

>  <fragmenstein_mode>  (381) 
expansion

>  <fragmenstein_error>  (381) 


$$$$
C2590-P175
     RDKit          3D

 71 75  0  0  0  0  0  0  0  0999 V2000
   -4.2999   -7.6541   22.5555 O   0  0  0  0  0  0  0  0  0  0  0  0
   -3.9103   -6.5068   22.6262 C   0  0  0  0  0  0  0  0  0  0  0  0
   -4.3283   -5.1904   21.2287 C   0  0  0  0  0  0  0  0  0  0  0  0
   -4.8302   -4.7899   19.6217 N   0  0  0  0  0  0  0  0  0  0  0  0
   -4.1659   -5.0978   18.1179 C   0  0  0  0  0  0  0  0  0  0  0  0
   -4.0177   -6.4647   17.5070 C   0  0  0  0  0  0  0  0  0  0  0  0
   -2.7400   -7.8591   18.2268 C   0  0  0  0  0  0  0  0  0  0  0  0
   -1.0048   -8.5224   18.8917 C   0  0  0  0  0  0  0  0  0  0  0  0
    0.5393   -8.3766   19.9503 N   0  0  0  0  0  0  0  0  0  0  0  0
    1.4601   -9.2718   21.4728 C   0  0  0  0  0  0  0  0  0  0  0  0
    0.6760  -11.3364   22.0851 S   0  0  0  0  0  0  0  0  0  0  0  0
    0.1852   -7.6046   21.6262 Cl  0  0  0  0  0  0  0  0  0  0  0  0
    2.4527   -8.5606   23.1953 C   0  0  0  0  0  0  0  0  0  0  0  0
    1.8005   -7.7416   23.7057 O   0  0  0  0  0  0  0  0  0  0  0  0
    3.9414   -8.8933   23.7623 N   0  0  0  0  0  0  0  0  0  0  0  0
    4.7993   -8.2305   24.8741 C   0  0  0  0  0  0  0  0  0  0  0  0
    4.0674   -7.4586   26.0857 C   0  0  0  0  0  0  0  0  0  0  0  0
    3.1997   -7.9297   26.9600 N   0  0  0  0  0  0  0  0  0  0  0  0
    3.4456   -7.2683   28.1669 N   0  0  0  0  0  0  0  0  0  0  0  0
    4.5048   -6.5077   27.9842 C   0  0  0  0  0  0  0  0  0  0  0  0
    5.5913   -6.2600   28.8811 C   0  0  0  0  0  0  0  0  0  0  0  0
    5.7931   -5.1997   29.7362 C   0  0  0  0  0  0  0  0  0  0  0  0
    7.0285   -5.3088   30.4512 C   0  0  0  0  0  0  0  0  0  0  0  0
    7.7380   -6.4369   30.1047 C   0  0  0  0  0  0  0  0  0  0  0  0
    6.9238   -7.3538   28.9200 S   0  0  0  0  0  0  0  0  0  0  0  0
    4.6199   -6.3107   26.6411 N   0  0  0  0  0  0  0  0  0  0  0  0
    5.7612   -7.1075   24.2011 C   0  0  0  0  0  0  0  0  0  0  0  0
    6.9515   -7.6640   24.9775 C   0  0  0  0  0  0  0  0  0  0  0  0
    6.1260   -8.8928   25.3810 C   0  0  0  0  0  0  0  0  0  0  0  0
   -5.9843   -6.7224   17.3323 C   0  0  0  0  0  0  0  0  0  0  0  0
   -6.7831   -7.1482   16.5059 O   0  0  0  0  0  0  0  0  0  0  0  0
   -6.7609   -6.2200   18.4447 N   0  0  0  0  0  0  0  0  0  0  0  0
   -6.1806   -5.1817   19.7633 C   0  0  0  0  0  0  0  0  0  0  0  0
   -6.6973   -4.8449   20.8005 O   0  0  0  0  0  0  0  0  0  0  0  0
   -2.7882   -5.6920   23.8596 N   0  0  0  0  0  0  0  0  0  0  0  0
   -1.9826   -6.3529   25.5010 C   0  0  0  0  0  0  0  0  0  0  0  0
   -1.9594   -5.8119   27.4244 C   0  0  0  0  0  0  0  0  0  0  0  0
   -1.0991   -4.6071   28.0898 C   0  0  0  0  0  0  0  0  0  0  0  0
   -0.4305   -4.6756   29.3647 C   0  0  0  0  0  0  0  0  0  0  0  0
   -0.4382   -5.8681   30.1147 C   0  0  0  0  0  0  0  0  0  0  0  0
   -1.2260   -6.9652   29.6897 C   0  0  0  0  0  0  0  0  0  0  0  0
   -2.0168   -6.8940   28.4408 C   0  0  0  0  0  0  0  0  0  0  0  0
   -3.3927   -5.2746   20.7965 H   0  0  0  0  0  0  0  0  0  0  0  0
   -4.4359   -4.2108   21.6896 H   0  0  0  0  0  0  0  0  0  0  0  0
   -4.7416   -4.4509   17.4560 H   0  0  0  0  0  0  0  0  0  0  0  0
   -3.0221   -8.7151   17.5878 H   0  0  0  0  0  0  0  0  0  0  0  0
   -3.0191   -8.1149   19.2614 H   0  0  0  0  0  0  0  0  0  0  0  0
   -1.3760   -9.5262   19.1092 H   0  0  0  0  0  0  0  0  0  0  0  0
   -0.4733   -8.5057   17.9356 H   0  0  0  0  0  0  0  0  0  0  0  0
    1.0395   -8.9733   19.2722 H   0  0  0  0  0  0  0  0  0  0  0  0
    0.9675  -11.1630   23.3826 H   0  0  0  0  0  0  0  0  0  0  0  0
    4.2991   -9.6719   23.2550 H   0  0  0  0  0  0  0  0  0  0  0  0
    5.0896   -4.3839   29.8588 H   0  0  0  0  0  0  0  0  0  0  0  0
    7.3780   -4.5879   31.1813 H   0  0  0  0  0  0  0  0  0  0  0  0
    8.6972   -6.7600   30.4869 H   0  0  0  0  0  0  0  0  0  0  0  0
    5.3823   -5.7824   26.2524 H   0  0  0  0  0  0  0  0  0  0  0  0
    5.5573   -6.0519   24.3917 H   0  0  0  0  0  0  0  0  0  0  0  0
    5.9033   -7.1233   23.1246 H   0  0  0  0  0  0  0  0  0  0  0  0
    7.8505   -7.8897   24.4101 H   0  0  0  0  0  0  0  0  0  0  0  0
    7.2587   -7.0303   25.8158 H   0  0  0  0  0  0  0  0  0  0  0  0
    6.2733   -9.0016   26.4519 H   0  0  0  0  0  0  0  0  0  0  0  0
    6.4089   -9.8507   24.9362 H   0  0  0  0  0  0  0  0  0  0  0  0
   -7.7297   -6.5229   18.4574 H   0  0  0  0  0  0  0  0  0  0  0  0
   -2.7245   -4.7235   23.6952 H   0  0  0  0  0  0  0  0  0  0  0  0
   -1.2779   -5.5579   25.3766 H   0  0  0  0  0  0  0  0  0  0  0  0
   -2.2629   -7.3351   25.7684 H   0  0  0  0  0  0  0  0  0  0  0  0
   -0.8989   -3.6941   27.5436 H   0  0  0  0  0  0  0  0  0  0  0  0
    0.1449   -3.8179   29.7037 H   0  0  0  0  0  0  0  0  0  0  0  0
    0.1072   -5.9214   31.0531 H   0  0  0  0  0  0  0  0  0  0  0  0
   -1.2948   -7.8107   30.3644 H   0  0  0  0  0  0  0  0  0  0  0  0
   -2.8556   -7.4923   28.2390 H   0  0  0  0  0  0  0  0  0  0  0  0
  1  2  2  0
  2  3  1  0
  3  4  1  0
  4  5  1  0
  5  6  2  0
  6  7  1  0
  7  8  1  0
  8  9  1  0
  9 10  1  0
 10 11  1  0
 10 12  1  0
 10 13  1  0
 13 14  2  0
 13 15  1  0
 15 16  1  0
 16 17  1  0
 17 18  2  0
 18 19  1  0
 19 20  2  0
 20 21  1  0
 21 22  2  0
 22 23  1  0
 23 24  2  0
 24 25  1  0
 20 26  1  0
 16 27  1  0
 27 28  1  0
 28 29  1  0
  6 30  1  0
 30 31  2  0
 30 32  1  0
 32 33  1  0
 33 34  2  0
  2 35  1  0
 35 36  1  0
 36 37  1  0
 37 38  2  0
 38 39  1  0
 39 40  2  0
 40 41  1  0
 41 42  2  0
 33  4  1  0
 42 37  1  0
 29 16  1  0
 26 17  1  0
 25 21  1  0
  3 43  1  0
  3 44  1  0
  5 45  1  0
  7 46  1  0
  7 47  1  0
  8 48  1  0
  8 49  1  0
  9 50  1  0
 11 51  1  0
 15 52  1  0
 22 53  1  0
 23 54  1  0
 24 55  1  0
 26 56  1  0
 27 57  1  0
 27 58  1  0
 28 59  1  0
 28 60  1  0
 29 61  1  0
 29 62  1  0
 32 63  1  0
 35 64  1  0
 36 65  1  0
 36 66  1  0
 38 67  1  0
 39 68  1  0
 40 69  1  0
 41 70  1  0
 42 71  1  0
M  END
>  <Energy>  (382) 
1215.7604160332141

>  <compound_id>  (382) 
2590

>  <target_id>  (382) 
1

>  <reference_id>  (382) 
175

>  <inspiration_ids>  (382) 
[175, 78]

>  <energy_score>  (382) 
1156.8196053713236

>  <distance_score>  (382) 
5.780551661203632

>  <path>  (382) 
/opt/xchem-fragalysis-2/maxwin/BulkDock/SCRATCH/505736/C2590-P175/C2590-P175.minimised.mol

>  <scratch_subdir>  (382) 
/opt/xchem-fragalysis-2/maxwin/BulkDock/SCRATCH/505736/C2590-P175

>  <fragmenstein_runtime>  (382) 
56.26758575439453

>  <fragmenstein_outcome>  (382) 
too moved

>  <fragmenstein_mode>  (382) 
expansion

>  <fragmenstein_error>  (382) 


$$$$
C2590-P78
     RDKit          3D

 71 75  0  0  0  0  0  0  0  0999 V2000
   -1.6840   -7.3942   24.1829 O   0  0  0  0  0  0  0  0  0  0  0  0
   -2.0178   -6.3576   24.6416 C   0  0  0  0  0  0  0  0  0  0  0  0
   -2.6256   -5.1841   23.2289 C   0  0  0  0  0  0  0  0  0  0  0  0
   -2.7783   -4.9386   21.0501 N   0  0  0  0  0  0  0  0  0  0  0  0
   -0.5893   -4.4830   20.6050 C   0  0  0  0  0  0  0  0  0  0  0  0
   -0.3486   -5.6638   19.0471 C   0  0  0  0  0  0  0  0  0  0  0  0
    0.8589   -7.1330   19.8467 C   0  0  0  0  0  0  0  0  0  0  0  0
    2.5002   -6.3368   19.6291 C   0  0  0  0  0  0  0  0  0  0  0  0
    4.3430   -6.8450   19.1832 N   0  0  0  0  0  0  0  0  0  0  0  0
    5.4131   -7.6689   20.9115 C   0  0  0  0  0  0  0  0  0  0  0  0
    6.4422   -6.5639   22.7193 S   0  0  0  0  0  0  0  0  0  0  0  0
    6.9614   -6.9294   19.3531 Cl  0  0  0  0  0  0  0  0  0  0  0  0
    4.6790   -7.5237   22.9657 C   0  0  0  0  0  0  0  0  0  0  0  0
    4.5358   -6.5272   23.5524 O   0  0  0  0  0  0  0  0  0  0  0  0
    4.4659   -8.8604   23.6365 N   0  0  0  0  0  0  0  0  0  0  0  0
    4.2052   -9.2128   24.9210 C   0  0  0  0  0  0  0  0  0  0  0  0
    4.9446   -8.3627   25.9980 C   0  0  0  0  0  0  0  0  0  0  0  0
    4.3739   -7.7036   26.9904 N   0  0  0  0  0  0  0  0  0  0  0  0
    5.3627   -7.3967   27.9089 N   0  0  0  0  0  0  0  0  0  0  0  0
    6.5032   -7.8822   27.4534 C   0  0  0  0  0  0  0  0  0  0  0  0
    7.7180   -8.0338   28.1972 C   0  0  0  0  0  0  0  0  0  0  0  0
    7.9803   -7.5569   29.4668 C   0  0  0  0  0  0  0  0  0  0  0  0
    9.2629   -7.9527   29.9497 C   0  0  0  0  0  0  0  0  0  0  0  0
    9.9470   -8.7127   29.0285 C   0  0  0  0  0  0  0  0  0  0  0  0
    9.0452   -8.9434   27.5949 S   0  0  0  0  0  0  0  0  0  0  0  0
    6.2989   -8.3583   26.1857 N   0  0  0  0  0  0  0  0  0  0  0  0
    2.8391   -9.5666   25.1133 C   0  0  0  0  0  0  0  0  0  0  0  0
    3.0869  -10.8877   24.3208 C   0  0  0  0  0  0  0  0  0  0  0  0
    4.5903  -10.7418   24.7810 C   0  0  0  0  0  0  0  0  0  0  0  0
   -2.3826   -6.5026   18.9395 C   0  0  0  0  0  0  0  0  0  0  0  0
   -2.4717   -7.7566   18.8301 O   0  0  0  0  0  0  0  0  0  0  0  0
   -3.6299   -5.2780   18.9605 N   0  0  0  0  0  0  0  0  0  0  0  0
   -4.1244   -4.8361   20.2255 C   0  0  0  0  0  0  0  0  0  0  0  0
   -5.2487   -4.6503   20.6489 O   0  0  0  0  0  0  0  0  0  0  0  0
   -2.1737   -5.8971   26.3345 N   0  0  0  0  0  0  0  0  0  0  0  0
   -2.0308   -6.9305   27.9545 C   0  0  0  0  0  0  0  0  0  0  0  0
   -1.1491   -6.4841   29.3998 C   0  0  0  0  0  0  0  0  0  0  0  0
   -0.6200   -5.1782   29.6277 C   0  0  0  0  0  0  0  0  0  0  0  0
    0.0312   -4.8681   30.8257 C   0  0  0  0  0  0  0  0  0  0  0  0
    0.1981   -5.8434   31.8047 C   0  0  0  0  0  0  0  0  0  0  0  0
   -0.2294   -7.1456   31.5639 C   0  0  0  0  0  0  0  0  0  0  0  0
   -0.8525   -7.4764   30.3561 C   0  0  0  0  0  0  0  0  0  0  0  0
   -3.0977   -4.3414   23.8439 H   0  0  0  0  0  0  0  0  0  0  0  0
   -1.5599   -4.8177   23.5882 H   0  0  0  0  0  0  0  0  0  0  0  0
    0.3509   -4.5249   21.2915 H   0  0  0  0  0  0  0  0  0  0  0  0
    0.6341   -7.3869   20.8970 H   0  0  0  0  0  0  0  0  0  0  0  0
    0.6699   -8.0741   19.2855 H   0  0  0  0  0  0  0  0  0  0  0  0
    2.3504   -5.6754   20.4855 H   0  0  0  0  0  0  0  0  0  0  0  0
    2.4911   -5.2547   19.4363 H   0  0  0  0  0  0  0  0  0  0  0  0
    4.5390   -7.3605   18.3241 H   0  0  0  0  0  0  0  0  0  0  0  0
    6.6780   -7.6163   23.5198 H   0  0  0  0  0  0  0  0  0  0  0  0
    4.7233   -9.5524   23.0016 H   0  0  0  0  0  0  0  0  0  0  0  0
    7.2739   -6.9583   30.0300 H   0  0  0  0  0  0  0  0  0  0  0  0
    9.6598   -7.6892   30.9227 H   0  0  0  0  0  0  0  0  0  0  0  0
   10.9357   -9.1402   29.1262 H   0  0  0  0  0  0  0  0  0  0  0  0
    6.9703   -8.8508   25.6192 H   0  0  0  0  0  0  0  0  0  0  0  0
    2.7636   -9.5769   26.1777 H   0  0  0  0  0  0  0  0  0  0  0  0
    2.2722   -8.7578   24.6883 H   0  0  0  0  0  0  0  0  0  0  0  0
    2.9781  -10.7946   23.2486 H   0  0  0  0  0  0  0  0  0  0  0  0
    2.4593  -11.7569   24.5260 H   0  0  0  0  0  0  0  0  0  0  0  0
    5.0706  -11.2225   25.6249 H   0  0  0  0  0  0  0  0  0  0  0  0
    5.2904  -11.0689   24.0038 H   0  0  0  0  0  0  0  0  0  0  0  0
   -4.0844   -4.9820   18.0975 H   0  0  0  0  0  0  0  0  0  0  0  0
   -2.3879   -4.9112   26.4063 H   0  0  0  0  0  0  0  0  0  0  0  0
   -3.0111   -7.2626   28.2097 H   0  0  0  0  0  0  0  0  0  0  0  0
   -1.5185   -7.8455   27.7957 H   0  0  0  0  0  0  0  0  0  0  0  0
   -0.7688   -4.3874   28.8910 H   0  0  0  0  0  0  0  0  0  0  0  0
    0.3941   -3.8567   30.9958 H   0  0  0  0  0  0  0  0  0  0  0  0
    0.6889   -5.5919   32.7417 H   0  0  0  0  0  0  0  0  0  0  0  0
   -0.0540   -7.9136   32.3122 H   0  0  0  0  0  0  0  0  0  0  0  0
   -1.0254   -8.5258   30.1657 H   0  0  0  0  0  0  0  0  0  0  0  0
  1  2  2  0
  2  3  1  0
  3  4  1  0
  4  5  1  0
  5  6  2  0
  6  7  1  0
  7  8  1  0
  8  9  1  0
  9 10  1  0
 10 11  1  0
 10 12  1  0
 10 13  1  0
 13 14  2  0
 13 15  1  0
 15 16  1  0
 16 17  1  0
 17 18  2  0
 18 19  1  0
 19 20  2  0
 20 21  1  0
 21 22  2  0
 22 23  1  0
 23 24  2  0
 24 25  1  0
 20 26  1  0
 16 27  1  0
 27 28  1  0
 28 29  1  0
  6 30  1  0
 30 31  2  0
 30 32  1  0
 32 33  1  0
 33 34  2  0
  2 35  1  0
 35 36  1  0
 36 37  1  0
 37 38  2  0
 38 39  1  0
 39 40  2  0
 40 41  1  0
 41 42  2  0
 33  4  1  0
 42 37  1  0
 29 16  1  0
 26 17  1  0
 25 21  1  0
  3 43  1  0
  3 44  1  0
  5 45  1  0
  7 46  1  0
  7 47  1  0
  8 48  1  0
  8 49  1  0
  9 50  1  0
 11 51  1  0
 15 52  1  0
 22 53  1  0
 23 54  1  0
 24 55  1  0
 26 56  1  0
 27 57  1  0
 27 58  1  0
 28 59  1  0
 28 60  1  0
 29 61  1  0
 29 62  1  0
 32 63  1  0
 35 64  1  0
 36 65  1  0
 36 66  1  0
 38 67  1  0
 39 68  1  0
 40 69  1  0
 41 70  1  0
 42 71  1  0
M  END
>  <Energy>  (383) 
2063.8272440139795

>  <compound_id>  (383) 
2590

>  <target_id>  (383) 
1

>  <reference_id>  (383) 
78

>  <inspiration_ids>  (383) 
[175, 78]

>  <energy_score>  (383) 
2004.8864333521226

>  <distance_score>  (383) 
5.260596901348572

>  <path>  (383) 
/opt/xchem-fragalysis-2/maxwin/BulkDock/SCRATCH/505736/C2590-P78/C2590-P78.minimised.mol

>  <scratch_subdir>  (383) 
/opt/xchem-fragalysis-2/maxwin/BulkDock/SCRATCH/505736/C2590-P78

>  <fragmenstein_runtime>  (383) 
41.200751543045044

>  <fragmenstein_outcome>  (383) 
too moved

>  <fragmenstein_mode>  (383) 
expansion

>  <fragmenstein_error>  (383) 


$$$$
C2591-P175
     RDKit          3D

 78 83  0  0  0  0  0  0  0  0999 V2000
   -1.3238   -2.8038   27.3957 O   0  0  0  0  0  0  0  0  0  0  0  0
   -0.8249   -3.9464   27.3480 C   0  0  0  0  0  0  0  0  0  0  0  0
   -0.5333   -4.4714   28.7680 C   0  0  0  0  0  0  0  0  0  0  0  0
    0.7343   -4.7736   29.3804 N   0  0  0  0  0  0  0  0  0  0  0  0
    1.9849   -4.6755   28.9018 C   0  0  0  0  0  0  0  0  0  0  0  0
    2.8042   -5.3409   29.6832 N   0  0  0  0  0  0  0  0  0  0  0  0
    2.0788   -5.8074   30.7562 N   0  0  0  0  0  0  0  0  0  0  0  0
    0.8362   -5.4409   30.5719 C   0  0  0  0  0  0  0  0  0  0  0  0
   -0.5433   -5.0402   25.9385 N   0  0  0  0  0  0  0  0  0  0  0  0
   -0.7615   -4.7734   24.2169 C   0  0  0  0  0  0  0  0  0  0  0  0
   -1.3542   -5.8704   23.9054 C   0  0  0  0  0  0  0  0  0  0  0  0
    0.4779   -6.5478   23.1640 C   0  0  0  0  0  0  0  0  0  0  0  0
    1.9694   -7.5451   23.8071 N   0  0  0  0  0  0  0  0  0  0  0  0
    3.2039   -7.1678   24.7775 C   0  0  0  0  0  0  0  0  0  0  0  0
    3.2308   -8.3279   26.1945 S   0  0  0  0  0  0  0  0  0  0  0  0
    4.7556   -7.5348   24.0743 Cl  0  0  0  0  0  0  0  0  0  0  0  0
    3.3771   -5.7399   25.5706 C   0  0  0  0  0  0  0  0  0  0  0  0
    2.4382   -5.0327   25.8003 O   0  0  0  0  0  0  0  0  0  0  0  0
    4.7750   -5.6209   25.9677 N   0  0  0  0  0  0  0  0  0  0  0  0
    5.4451   -4.6626   26.8433 C   0  0  0  0  0  0  0  0  0  0  0  0
    6.1312   -5.4576   28.0127 C   0  0  0  0  0  0  0  0  0  0  0  0
    6.1913   -5.0931   29.2730 N   0  0  0  0  0  0  0  0  0  0  0  0
    6.8941   -6.0619   29.9609 N   0  0  0  0  0  0  0  0  0  0  0  0
    7.2452   -7.0005   29.1074 C   0  0  0  0  0  0  0  0  0  0  0  0
    7.9560   -8.2006   29.4314 C   0  0  0  0  0  0  0  0  0  0  0  0
    8.4789   -8.5303   30.6677 C   0  0  0  0  0  0  0  0  0  0  0  0
    9.0948   -9.8146   30.6818 C   0  0  0  0  0  0  0  0  0  0  0  0
    9.0309  -10.4260   29.4509 C   0  0  0  0  0  0  0  0  0  0  0  0
    8.2449   -9.4475   28.2889 S   0  0  0  0  0  0  0  0  0  0  0  0
    6.8068   -6.6411   27.8648 N   0  0  0  0  0  0  0  0  0  0  0  0
    4.7672   -3.3240   27.1897 C   0  0  0  0  0  0  0  0  0  0  0  0
    5.5046   -2.6678   26.0216 C   0  0  0  0  0  0  0  0  0  0  0  0
    6.4803   -3.8442   26.0359 C   0  0  0  0  0  0  0  0  0  0  0  0
   -2.4917   -4.7614   23.9788 C   0  0  0  0  0  0  0  0  0  0  0  0
   -2.9513   -6.0177   23.8303 C   0  0  0  0  0  0  0  0  0  0  0  0
   -4.0840   -6.3025   22.4029 C   0  0  0  0  0  0  0  0  0  0  0  0
   -4.1888   -7.5662   22.3348 C   0  0  0  0  0  0  0  0  0  0  0  0
   -5.2682   -6.9847   22.8100 C   0  0  0  0  0  0  0  0  0  0  0  0
   -6.5464   -5.9763   22.0661 C   0  0  0  0  0  0  0  0  0  0  0  0
   -7.8705   -6.8564   21.7174 C   0  0  0  0  0  0  0  0  0  0  0  0
   -8.6300   -7.7588   22.6102 O   0  0  0  0  0  0  0  0  0  0  0  0
   -6.0158   -5.0112   21.2390 C   0  0  0  0  0  0  0  0  0  0  0  0
   -4.6570   -5.1272   21.3888 C   0  0  0  0  0  0  0  0  0  0  0  0
   -1.9865   -6.1416   25.6796 C   0  0  0  0  0  0  0  0  0  0  0  0
   -1.1099   -5.3777   28.8884 H   0  0  0  0  0  0  0  0  0  0  0  0
   -0.9890   -3.7452   29.4587 H   0  0  0  0  0  0  0  0  0  0  0  0
    2.2190   -4.1618   27.9909 H   0  0  0  0  0  0  0  0  0  0  0  0
    0.0010   -5.6500   31.2257 H   0  0  0  0  0  0  0  0  0  0  0  0
   -0.9028   -3.8297   23.6790 H   0  0  0  0  0  0  0  0  0  0  0  0
    0.2016   -4.8026   23.7021 H   0  0  0  0  0  0  0  0  0  0  0  0
   -1.4506   -6.9907   24.1607 H   0  0  0  0  0  0  0  0  0  0  0  0
    0.7865   -5.7299   22.4719 H   0  0  0  0  0  0  0  0  0  0  0  0
    0.1470   -7.2986   22.4132 H   0  0  0  0  0  0  0  0  0  0  0  0
    2.0364   -8.4912   23.4062 H   0  0  0  0  0  0  0  0  0  0  0  0
    3.5371   -9.3751   25.4078 H   0  0  0  0  0  0  0  0  0  0  0  0
    5.3108   -6.3610   25.5220 H   0  0  0  0  0  0  0  0  0  0  0  0
    8.4060   -7.8771   31.5309 H   0  0  0  0  0  0  0  0  0  0  0  0
    9.5536  -10.2672   31.5527 H   0  0  0  0  0  0  0  0  0  0  0  0
    9.4089  -11.4025   29.1821 H   0  0  0  0  0  0  0  0  0  0  0  0
    6.9574   -7.1549   27.0114 H   0  0  0  0  0  0  0  0  0  0  0  0
    3.6911   -3.2338   27.0732 H   0  0  0  0  0  0  0  0  0  0  0  0
    5.0436   -2.9045   28.1641 H   0  0  0  0  0  0  0  0  0  0  0  0
    4.9030   -2.5989   25.1093 H   0  0  0  0  0  0  0  0  0  0  0  0
    5.9400   -1.6876   26.2325 H   0  0  0  0  0  0  0  0  0  0  0  0
    7.4191   -3.6279   26.5575 H   0  0  0  0  0  0  0  0  0  0  0  0
    6.6907   -4.2486   25.0447 H   0  0  0  0  0  0  0  0  0  0  0  0
   -3.2392   -4.0640   23.5872 H   0  0  0  0  0  0  0  0  0  0  0  0
   -2.8076   -4.2004   24.8373 H   0  0  0  0  0  0  0  0  0  0  0  0
   -2.5336   -6.8750   23.2061 H   0  0  0  0  0  0  0  0  0  0  0  0
   -3.7796   -7.8777   21.4045 H   0  0  0  0  0  0  0  0  0  0  0  0
   -5.5153   -7.0995   23.8480 H   0  0  0  0  0  0  0  0  0  0  0  0
   -8.3460   -6.7120   20.7155 H   0  0  0  0  0  0  0  0  0  0  0  0
   -7.2771   -7.6092   21.4181 H   0  0  0  0  0  0  0  0  0  0  0  0
   -9.5650   -7.8594   22.4143 H   0  0  0  0  0  0  0  0  0  0  0  0
   -6.4818   -4.4309   20.4825 H   0  0  0  0  0  0  0  0  0  0  0  0
   -4.1192   -4.8789   20.5002 H   0  0  0  0  0  0  0  0  0  0  0  0
   -1.9673   -7.1986   25.8767 H   0  0  0  0  0  0  0  0  0  0  0  0
   -2.3865   -6.1100   26.6742 H   0  0  0  0  0  0  0  0  0  0  0  0
  1  2  2  0
  2  3  1  0
  3  4  1  0
  4  5  1  0
  5  6  2  0
  6  7  1  0
  7  8  2  0
  2  9  1  0
  9 10  1  0
 10 11  1  0
 11 12  1  0
 12 13  1  0
 13 14  1  0
 14 15  1  0
 14 16  1  0
 14 17  1  0
 17 18  2  0
 17 19  1  0
 19 20  1  0
 20 21  1  0
 21 22  2  0
 22 23  1  0
 23 24  2  0
 24 25  1  0
 25 26  2  0
 26 27  1  0
 27 28  2  0
 28 29  1  0
 24 30  1  0
 20 31  1  0
 31 32  1  0
 32 33  1  0
 11 34  1  0
 34 35  1  0
 35 36  1  0
 36 37  2  0
 37 38  1  0
 38 39  2  0
 39 40  1  0
 40 41  1  0
 39 42  1  0
 42 43  2  0
 35 44  1  0
  8  4  1  0
 44  9  1  0
 33 20  1  0
 43 36  1  0
 30 21  1  0
 29 25  1  0
  3 45  1  0
  3 46  1  0
  5 47  1  0
  8 48  1  0
 10 49  1  0
 10 50  1  0
 11 51  1  0
 12 52  1  0
 12 53  1  0
 13 54  1  0
 15 55  1  0
 19 56  1  0
 26 57  1  0
 27 58  1  0
 28 59  1  0
 30 60  1  0
 31 61  1  0
 31 62  1  0
 32 63  1  0
 32 64  1  0
 33 65  1  0
 33 66  1  0
 34 67  1  0
 34 68  1  0
 35 69  1  0
 37 70  1  0
 38 71  1  0
 40 72  1  0
 40 73  1  0
 41 74  1  0
 42 75  1  0
 43 76  1  0
 44 77  1  0
 44 78  1  0
M  END
>  <Energy>  (384) 
1335.1087274979157

>  <compound_id>  (384) 
2591

>  <target_id>  (384) 
1

>  <reference_id>  (384) 
175

>  <inspiration_ids>  (384) 
[175, 105]

>  <energy_score>  (384) 
1169.4131552758372

>  <distance_score>  (384) 
5.6765262853259335

>  <path>  (384) 
/opt/xchem-fragalysis-2/maxwin/BulkDock/SCRATCH/505736/C2591-P175/C2591-P175.minimised.mol

>  <scratch_subdir>  (384) 
/opt/xchem-fragalysis-2/maxwin/BulkDock/SCRATCH/505736/C2591-P175

>  <fragmenstein_runtime>  (384) 
109.75569272041321

>  <fragmenstein_outcome>  (384) 
too moved

>  <fragmenstein_mode>  (384) 
expansion

>  <fragmenstein_error>  (384) 


$$$$
C2591-P105
     RDKit          3D

 78 83  0  0  0  0  0  0  0  0999 V2000
   -1.5618   -5.3772   24.9675 O   0  0  0  0  0  0  0  0  0  0  0  0
   -1.7251   -6.5255   24.9131 C   0  0  0  0  0  0  0  0  0  0  0  0
   -2.5665   -7.3391   26.4927 C   0  0  0  0  0  0  0  0  0  0  0  0
   -1.7472   -7.6207   28.1849 N   0  0  0  0  0  0  0  0  0  0  0  0
   -0.7187   -8.5881   28.7129 C   0  0  0  0  0  0  0  0  0  0  0  0
   -0.2440   -8.2039   29.8716 N   0  0  0  0  0  0  0  0  0  0  0  0
   -1.1112   -7.2986   30.3447 N   0  0  0  0  0  0  0  0  0  0  0  0
   -2.0455   -7.2084   29.4392 C   0  0  0  0  0  0  0  0  0  0  0  0
   -1.2484   -7.4341   23.9118 N   0  0  0  0  0  0  0  0  0  0  0  0
   -0.0574   -7.1869   22.4334 C   0  0  0  0  0  0  0  0  0  0  0  0
    0.3706   -7.6653   20.9257 C   0  0  0  0  0  0  0  0  0  0  0  0
    1.4277   -6.1016   20.6429 C   0  0  0  0  0  0  0  0  0  0  0  0
    2.5843   -5.7925   20.0371 N   0  0  0  0  0  0  0  0  0  0  0  0
    3.5282   -5.2742   21.3637 C   0  0  0  0  0  0  0  0  0  0  0  0
    5.3851   -6.6952   22.7918 S   0  0  0  0  0  0  0  0  0  0  0  0
    1.9750   -3.6292   22.1953 Cl  0  0  0  0  0  0  0  0  0  0  0  0
    4.1027   -6.5838   23.3131 C   0  0  0  0  0  0  0  0  0  0  0  0
    3.7191   -7.8441   23.3460 O   0  0  0  0  0  0  0  0  0  0  0  0
    4.9110   -5.7509   24.7401 N   0  0  0  0  0  0  0  0  0  0  0  0
    5.3562   -6.2662   26.0341 C   0  0  0  0  0  0  0  0  0  0  0  0
    5.6759   -5.3288   27.2545 C   0  0  0  0  0  0  0  0  0  0  0  0
    6.2711   -4.1565   27.2339 N   0  0  0  0  0  0  0  0  0  0  0  0
    7.1270   -4.1119   28.3385 N   0  0  0  0  0  0  0  0  0  0  0  0
    7.0248   -5.2672   28.9606 C   0  0  0  0  0  0  0  0  0  0  0  0
    7.9720   -5.9040   29.8274 C   0  0  0  0  0  0  0  0  0  0  0  0
    8.9079   -5.3109   30.6477 C   0  0  0  0  0  0  0  0  0  0  0  0
    9.7200   -6.2652   31.3350 C   0  0  0  0  0  0  0  0  0  0  0  0
    9.3970   -7.5611   31.0019 C   0  0  0  0  0  0  0  0  0  0  0  0
    8.1221   -7.6227   29.8700 S   0  0  0  0  0  0  0  0  0  0  0  0
    5.8906   -5.8785   28.5030 N   0  0  0  0  0  0  0  0  0  0  0  0
    6.6165   -7.1963   25.8492 C   0  0  0  0  0  0  0  0  0  0  0  0
    5.8364   -8.3617   26.4329 C   0  0  0  0  0  0  0  0  0  0  0  0
    4.5470   -7.5282   26.4332 C   0  0  0  0  0  0  0  0  0  0  0  0
   -1.0062   -8.2993   19.8150 C   0  0  0  0  0  0  0  0  0  0  0  0
   -2.6762   -7.3974   20.6637 C   0  0  0  0  0  0  0  0  0  0  0  0
   -3.6076   -5.5253   20.9142 C   0  0  0  0  0  0  0  0  0  0  0  0
   -4.3860   -4.7066   20.0932 C   0  0  0  0  0  0  0  0  0  0  0  0
   -5.5211   -4.4615   20.6496 C   0  0  0  0  0  0  0  0  0  0  0  0
   -5.7585   -5.3766   21.6383 C   0  0  0  0  0  0  0  0  0  0  0  0
   -6.9507   -5.6756   22.2635 C   0  0  0  0  0  0  0  0  0  0  0  0
   -7.6690   -6.7450   21.6181 O   0  0  0  0  0  0  0  0  0  0  0  0
   -5.0791   -6.3591   22.3560 C   0  0  0  0  0  0  0  0  0  0  0  0
   -4.1866   -6.5733   21.6860 C   0  0  0  0  0  0  0  0  0  0  0  0
   -2.5350   -7.6190   22.5055 C   0  0  0  0  0  0  0  0  0  0  0  0
   -2.6681   -8.3566   26.2133 H   0  0  0  0  0  0  0  0  0  0  0  0
   -3.3559   -7.0755   27.1115 H   0  0  0  0  0  0  0  0  0  0  0  0
   -0.3459   -9.4196   28.1625 H   0  0  0  0  0  0  0  0  0  0  0  0
   -3.0646   -7.2214   29.6704 H   0  0  0  0  0  0  0  0  0  0  0  0
    0.6966   -7.6724   22.9942 H   0  0  0  0  0  0  0  0  0  0  0  0
    0.4007   -6.2300   22.8229 H   0  0  0  0  0  0  0  0  0  0  0  0
    0.9468   -8.5291   21.1851 H   0  0  0  0  0  0  0  0  0  0  0  0
    1.1752   -5.6021   21.5679 H   0  0  0  0  0  0  0  0  0  0  0  0
    1.0340   -5.0517   20.4037 H   0  0  0  0  0  0  0  0  0  0  0  0
    2.4753   -4.9444   19.5255 H   0  0  0  0  0  0  0  0  0  0  0  0
    4.9907   -7.9862   22.5829 H   0  0  0  0  0  0  0  0  0  0  0  0
    5.1872   -4.8316   24.4560 H   0  0  0  0  0  0  0  0  0  0  0  0
    9.0091   -4.2355   30.7470 H   0  0  0  0  0  0  0  0  0  0  0  0
   10.5111   -6.0062   32.0286 H   0  0  0  0  0  0  0  0  0  0  0  0
    9.8569   -8.4705   31.3644 H   0  0  0  0  0  0  0  0  0  0  0  0
    5.6551   -6.8187   28.7640 H   0  0  0  0  0  0  0  0  0  0  0  0
    6.9703   -7.3864   24.8375 H   0  0  0  0  0  0  0  0  0  0  0  0
    7.5139   -6.9313   26.4214 H   0  0  0  0  0  0  0  0  0  0  0  0
    5.8123   -9.2409   25.7842 H   0  0  0  0  0  0  0  0  0  0  0  0
    6.1925   -8.6516   27.4246 H   0  0  0  0  0  0  0  0  0  0  0  0
    4.0159   -7.4426   27.3838 H   0  0  0  0  0  0  0  0  0  0  0  0
    3.8044   -7.8910   25.7193 H   0  0  0  0  0  0  0  0  0  0  0  0
   -0.7128   -8.0433   18.8035 H   0  0  0  0  0  0  0  0  0  0  0  0
   -1.2622   -9.3483   19.6133 H   0  0  0  0  0  0  0  0  0  0  0  0
   -3.3041   -8.2114   20.2630 H   0  0  0  0  0  0  0  0  0  0  0  0
   -4.1615   -4.3153   19.1202 H   0  0  0  0  0  0  0  0  0  0  0  0
   -6.2618   -3.7769   20.3010 H   0  0  0  0  0  0  0  0  0  0  0  0
   -7.2201   -5.3764   23.2814 H   0  0  0  0  0  0  0  0  0  0  0  0
   -6.9510   -4.6299   21.9507 H   0  0  0  0  0  0  0  0  0  0  0  0
   -7.8423   -7.3904   22.3122 H   0  0  0  0  0  0  0  0  0  0  0  0
   -5.1795   -7.1138   23.0907 H   0  0  0  0  0  0  0  0  0  0  0  0
   -4.2236   -7.6484   21.6826 H   0  0  0  0  0  0  0  0  0  0  0  0
   -1.6716   -7.6468   21.9581 H   0  0  0  0  0  0  0  0  0  0  0  0
   -3.1829   -8.5732   22.5934 H   0  0  0  0  0  0  0  0  0  0  0  0
  1  2  2  0
  2  3  1  0
  3  4  1  0
  4  5  1  0
  5  6  2  0
  6  7  1  0
  7  8  2  0
  2  9  1  0
  9 10  1  0
 10 11  1  0
 11 12  1  0
 12 13  1  0
 13 14  1  0
 14 15  1  0
 14 16  1  0
 14 17  1  0
 17 18  2  0
 17 19  1  0
 19 20  1  0
 20 21  1  0
 21 22  2  0
 22 23  1  0
 23 24  2  0
 24 25  1  0
 25 26  2  0
 26 27  1  0
 27 28  2  0
 28 29  1  0
 24 30  1  0
 20 31  1  0
 31 32  1  0
 32 33  1  0
 11 34  1  0
 34 35  1  0
 35 36  1  0
 36 37  2  0
 37 38  1  0
 38 39  2  0
 39 40  1  0
 40 41  1  0
 39 42  1  0
 42 43  2  0
 35 44  1  0
  8  4  1  0
 44  9  1  0
 33 20  1  0
 43 36  1  0
 30 21  1  0
 29 25  1  0
  3 45  1  0
  3 46  1  0
  5 47  1  0
  8 48  1  0
 10 49  1  0
 10 50  1  0
 11 51  1  0
 12 52  1  0
 12 53  1  0
 13 54  1  0
 15 55  1  0
 19 56  1  0
 26 57  1  0
 27 58  1  0
 28 59  1  0
 30 60  1  0
 31 61  1  0
 31 62  1  0
 32 63  1  0
 32 64  1  0
 33 65  1  0
 33 66  1  0
 34 67  1  0
 34 68  1  0
 35 69  1  0
 37 70  1  0
 38 71  1  0
 40 72  1  0
 40 73  1  0
 41 74  1  0
 42 75  1  0
 43 76  1  0
 44 77  1  0
 44 78  1  0
M  END
>  <Energy>  (385) 
2161.697452299205

>  <compound_id>  (385) 
2591

>  <target_id>  (385) 
1

>  <reference_id>  (385) 
105

>  <inspiration_ids>  (385) 
[175, 105]

>  <energy_score>  (385) 
1996.0018800772054

>  <distance_score>  (385) 
5.386346645354633

>  <path>  (385) 
/opt/xchem-fragalysis-2/maxwin/BulkDock/SCRATCH/505736/C2591-P105/C2591-P105.minimised.mol

>  <scratch_subdir>  (385) 
/opt/xchem-fragalysis-2/maxwin/BulkDock/SCRATCH/505736/C2591-P105

>  <fragmenstein_runtime>  (385) 
62.43085289001465

>  <fragmenstein_outcome>  (385) 
too moved

>  <fragmenstein_mode>  (385) 
expansion

>  <fragmenstein_error>  (385) 


$$$$
C2592-P175
     RDKit          3D

 81 86  0  0  0  0  0  0  0  0999 V2000
   -1.4954   -7.1867   32.0544 O   0  0  0  0  0  0  0  0  0  0  0  0
   -0.9981   -7.6153   31.0531 C   0  0  0  0  0  0  0  0  0  0  0  0
   -0.6748   -9.0778   30.8730 C   0  0  0  0  0  0  0  0  0  0  0  0
   -1.1631   -9.9764   31.9295 N   0  0  0  0  0  0  0  0  0  0  0  0
   -1.3863  -11.8262   31.6537 C   0  0  0  0  0  0  0  0  0  0  0  0
   -0.6238  -12.8132   33.1444 N   0  0  0  0  0  0  0  0  0  0  0  0
   -0.0177  -11.1775   34.4720 N   0  0  0  0  0  0  0  0  0  0  0  0
   -0.4839   -9.5715   33.4527 C   0  0  0  0  0  0  0  0  0  0  0  0
   -0.6178   -6.9460   29.8365 N   0  0  0  0  0  0  0  0  0  0  0  0
   -1.7437   -6.9741   28.8766 C   0  0  0  0  0  0  0  0  0  0  0  0
   -2.2257   -6.7082   27.3378 C   0  0  0  0  0  0  0  0  0  0  0  0
   -1.6045   -5.1820   26.5823 C   0  0  0  0  0  0  0  0  0  0  0  0
   -1.2394   -5.3392   24.6194 C   0  0  0  0  0  0  0  0  0  0  0  0
    0.5527   -5.6850   23.6042 C   0  0  0  0  0  0  0  0  0  0  0  0
    1.9139   -7.0150   23.8256 N   0  0  0  0  0  0  0  0  0  0  0  0
    3.2293   -6.9082   24.8846 C   0  0  0  0  0  0  0  0  0  0  0  0
    3.1683   -8.1818   26.2413 S   0  0  0  0  0  0  0  0  0  0  0  0
    4.7442   -7.4277   24.1433 Cl  0  0  0  0  0  0  0  0  0  0  0  0
    3.4841   -5.5721   25.7336 C   0  0  0  0  0  0  0  0  0  0  0  0
    2.5676   -4.8765   26.0690 O   0  0  0  0  0  0  0  0  0  0  0  0
    4.8989   -5.4873   26.0446 N   0  0  0  0  0  0  0  0  0  0  0  0
    5.6266   -4.5995   26.9286 C   0  0  0  0  0  0  0  0  0  0  0  0
    6.2178   -5.4648   28.0920 C   0  0  0  0  0  0  0  0  0  0  0  0
    5.9492   -5.3253   29.3692 N   0  0  0  0  0  0  0  0  0  0  0  0
    6.6466   -6.2991   30.0472 N   0  0  0  0  0  0  0  0  0  0  0  0
    7.2757   -7.0513   29.1680 C   0  0  0  0  0  0  0  0  0  0  0  0
    8.0249   -8.2318   29.4724 C   0  0  0  0  0  0  0  0  0  0  0  0
    8.4427   -8.6313   30.7279 C   0  0  0  0  0  0  0  0  0  0  0  0
    9.1144   -9.8867   30.7114 C   0  0  0  0  0  0  0  0  0  0  0  0
    9.1960  -10.4057   29.4400 C   0  0  0  0  0  0  0  0  0  0  0  0
    8.4789   -9.3754   28.2778 S   0  0  0  0  0  0  0  0  0  0  0  0
    7.0645   -6.5296   27.9235 N   0  0  0  0  0  0  0  0  0  0  0  0
    4.9663   -3.2646   27.3084 C   0  0  0  0  0  0  0  0  0  0  0  0
    6.2999   -2.5616   27.0207 C   0  0  0  0  0  0  0  0  0  0  0  0
    6.6989   -3.7841   26.1900 C   0  0  0  0  0  0  0  0  0  0  0  0
   -0.9350   -4.4523   28.2263 C   0  0  0  0  0  0  0  0  0  0  0  0
    0.0563   -3.2432   28.4124 C   0  0  0  0  0  0  0  0  0  0  0  0
   -0.4766   -1.9726   28.7049 C   0  0  0  0  0  0  0  0  0  0  0  0
    0.2757   -0.9977   29.3858 C   0  0  0  0  0  0  0  0  0  0  0  0
    1.5873   -1.2562   29.7947 C   0  0  0  0  0  0  0  0  0  0  0  0
    2.3708   -0.2652   30.6160 C   0  0  0  0  0  0  0  0  0  0  0  0
    2.1444   -0.4897   31.9997 O   0  0  0  0  0  0  0  0  0  0  0  0
    2.1462   -2.4849   29.4396 C   0  0  0  0  0  0  0  0  0  0  0  0
    1.4159   -3.4390   28.7102 C   0  0  0  0  0  0  0  0  0  0  0  0
   -0.6186   -5.4734   29.4817 C   0  0  0  0  0  0  0  0  0  0  0  0
    0.3925   -8.9746   30.9195 H   0  0  0  0  0  0  0  0  0  0  0  0
   -0.8903   -9.5232   29.9099 H   0  0  0  0  0  0  0  0  0  0  0  0
   -0.9118  -11.5793   30.6732 H   0  0  0  0  0  0  0  0  0  0  0  0
   -0.4091   -8.5456   33.8387 H   0  0  0  0  0  0  0  0  0  0  0  0
   -1.4183   -7.9823   28.6454 H   0  0  0  0  0  0  0  0  0  0  0  0
   -2.6298   -7.2234   29.4496 H   0  0  0  0  0  0  0  0  0  0  0  0
   -2.0177   -7.4538   26.5827 H   0  0  0  0  0  0  0  0  0  0  0  0
   -3.2356   -7.0604   27.3028 H   0  0  0  0  0  0  0  0  0  0  0  0
   -0.5880   -4.7635   26.4838 H   0  0  0  0  0  0  0  0  0  0  0  0
   -1.8452   -4.6263   24.1035 H   0  0  0  0  0  0  0  0  0  0  0  0
   -1.8383   -6.2345   24.3681 H   0  0  0  0  0  0  0  0  0  0  0  0
    1.1665   -5.4681   24.4103 H   0  0  0  0  0  0  0  0  0  0  0  0
    0.6870   -5.0491   22.7283 H   0  0  0  0  0  0  0  0  0  0  0  0
    1.7025   -8.0059   23.6271 H   0  0  0  0  0  0  0  0  0  0  0  0
    3.4781   -9.1897   25.4028 H   0  0  0  0  0  0  0  0  0  0  0  0
    5.3984   -6.2011   25.5166 H   0  0  0  0  0  0  0  0  0  0  0  0
    8.2567   -8.0517   31.6257 H   0  0  0  0  0  0  0  0  0  0  0  0
    9.5076  -10.3870   31.5886 H   0  0  0  0  0  0  0  0  0  0  0  0
    9.6428  -11.3442   29.1440 H   0  0  0  0  0  0  0  0  0  0  0  0
    7.4430   -6.8782   27.0557 H   0  0  0  0  0  0  0  0  0  0  0  0
    4.6396   -3.1743   28.3422 H   0  0  0  0  0  0  0  0  0  0  0  0
    4.1618   -2.9266   26.6467 H   0  0  0  0  0  0  0  0  0  0  0  0
    6.9204   -2.4112   27.9114 H   0  0  0  0  0  0  0  0  0  0  0  0
    6.2301   -1.6184   26.4730 H   0  0  0  0  0  0  0  0  0  0  0  0
    6.4916   -3.6774   25.1214 H   0  0  0  0  0  0  0  0  0  0  0  0
    7.7314   -4.1053   26.3420 H   0  0  0  0  0  0  0  0  0  0  0  0
   -1.7827   -3.9581   28.6926 H   0  0  0  0  0  0  0  0  0  0  0  0
   -1.5219   -1.7596   28.4850 H   0  0  0  0  0  0  0  0  0  0  0  0
   -0.1977   -0.0528   29.6428 H   0  0  0  0  0  0  0  0  0  0  0  0
    3.4429   -0.3587   30.4096 H   0  0  0  0  0  0  0  0  0  0  0  0
    2.0711    0.7588   30.3682 H   0  0  0  0  0  0  0  0  0  0  0  0
    2.7130    0.1333   32.4806 H   0  0  0  0  0  0  0  0  0  0  0  0
    3.1520   -2.7286   29.7713 H   0  0  0  0  0  0  0  0  0  0  0  0
    1.9045   -4.3850   28.4917 H   0  0  0  0  0  0  0  0  0  0  0  0
    0.4600   -5.3629   29.6472 H   0  0  0  0  0  0  0  0  0  0  0  0
   -0.9547   -4.9548   30.4016 H   0  0  0  0  0  0  0  0  0  0  0  0
  1  2  2  0
  2  3  1  0
  3  4  1  0
  4  5  1  0
  5  6  2  0
  6  7  1  0
  7  8  2  0
  2  9  1  0
  9 10  1  0
 10 11  1  0
 11 12  1  0
 12 13  1  0
 13 14  1  0
 14 15  1  0
 15 16  1  0
 16 17  1  0
 16 18  1  0
 16 19  1  0
 19 20  2  0
 19 21  1  0
 21 22  1  0
 22 23  1  0
 23 24  2  0
 24 25  1  0
 25 26  2  0
 26 27  1  0
 27 28  2  0
 28 29  1  0
 29 30  2  0
 30 31  1  0
 26 32  1  0
 22 33  1  0
 33 34  1  0
 34 35  1  0
 12 36  1  0
 36 37  1  0
 37 38  2  0
 38 39  1  0
 39 40  2  0
 40 41  1  0
 41 42  1  0
 40 43  1  0
 43 44  2  0
 36 45  1  0
  8  4  1  0
 45  9  1  0
 35 22  1  0
 44 37  1  0
 32 23  1  0
 31 27  1  0
  3 46  1  0
  3 47  1  0
  5 48  1  0
  8 49  1  0
 10 50  1  0
 10 51  1  0
 11 52  1  0
 11 53  1  0
 12 54  1  0
 13 55  1  0
 13 56  1  0
 14 57  1  0
 14 58  1  0
 15 59  1  0
 17 60  1  0
 21 61  1  0
 28 62  1  0
 29 63  1  0
 30 64  1  0
 32 65  1  0
 33 66  1  0
 33 67  1  0
 34 68  1  0
 34 69  1  0
 35 70  1  0
 35 71  1  0
 36 72  1  0
 38 73  1  0
 39 74  1  0
 41 75  1  0
 41 76  1  0
 42 77  1  0
 43 78  1  0
 44 79  1  0
 45 80  1  0
 45 81  1  0
M  END
>  <Energy>  (386) 
1287.7207363715538

>  <compound_id>  (386) 
2592

>  <target_id>  (386) 
1

>  <reference_id>  (386) 
175

>  <inspiration_ids>  (386) 
[175, 128]

>  <energy_score>  (386) 
1094.08329361302

>  <distance_score>  (386) 
5.076542371576659

>  <path>  (386) 
/opt/xchem-fragalysis-2/maxwin/BulkDock/SCRATCH/505736/C2592-P175/C2592-P175.minimised.mol

>  <scratch_subdir>  (386) 
/opt/xchem-fragalysis-2/maxwin/BulkDock/SCRATCH/505736/C2592-P175

>  <fragmenstein_runtime>  (386) 
60.19283366203308

>  <fragmenstein_outcome>  (386) 
too moved

>  <fragmenstein_mode>  (386) 
expansion

>  <fragmenstein_error>  (386) 


$$$$
C2592-P128
     RDKit          3D

 81 86  0  0  0  0  0  0  0  0999 V2000
   -1.3475   -3.7156   31.1819 O   0  0  0  0  0  0  0  0  0  0  0  0
   -0.1440   -3.6877   31.2513 C   0  0  0  0  0  0  0  0  0  0  0  0
    0.5338   -3.7294   32.6200 C   0  0  0  0  0  0  0  0  0  0  0  0
    0.9001   -5.0503   33.0594 N   0  0  0  0  0  0  0  0  0  0  0  0
    2.1563   -5.4688   33.3734 C   0  0  0  0  0  0  0  0  0  0  0  0
    2.1164   -6.7331   33.7245 N   0  0  0  0  0  0  0  0  0  0  0  0
    0.8023   -7.1384   33.6615 N   0  0  0  0  0  0  0  0  0  0  0  0
    0.0778   -6.1055   33.2940 C   0  0  0  0  0  0  0  0  0  0  0  0
    0.8451   -3.5208   30.2264 N   0  0  0  0  0  0  0  0  0  0  0  0
    1.2640   -4.8720   29.6787 C   0  0  0  0  0  0  0  0  0  0  0  0
    2.5668   -5.0499   28.8485 C   0  0  0  0  0  0  0  0  0  0  0  0
    2.6621   -4.2041   27.4892 C   0  0  0  0  0  0  0  0  0  0  0  0
    1.9723   -5.1998   26.3244 C   0  0  0  0  0  0  0  0  0  0  0  0
    0.7702   -5.3375   24.7112 C   0  0  0  0  0  0  0  0  0  0  0  0
    0.7169   -5.1584   23.3882 N   0  0  0  0  0  0  0  0  0  0  0  0
    0.9323   -6.5543   23.2736 C   0  0  0  0  0  0  0  0  0  0  0  0
    0.3986   -7.8388   21.5029 S   0  0  0  0  0  0  0  0  0  0  0  0
    1.1919   -5.1809   21.4964 Cl  0  0  0  0  0  0  0  0  0  0  0  0
    2.5818   -7.5418   24.1841 C   0  0  0  0  0  0  0  0  0  0  0  0
    2.6128   -8.7223   23.9387 O   0  0  0  0  0  0  0  0  0  0  0  0
    3.6478   -6.6890   25.1471 N   0  0  0  0  0  0  0  0  0  0  0  0
    4.9348   -7.1226   25.8464 C   0  0  0  0  0  0  0  0  0  0  0  0
    5.1872   -7.0733   27.4130 C   0  0  0  0  0  0  0  0  0  0  0  0
    4.9864   -6.0298   28.1823 N   0  0  0  0  0  0  0  0  0  0  0  0
    5.8704   -6.0770   29.2473 N   0  0  0  0  0  0  0  0  0  0  0  0
    6.6475   -7.1232   29.0789 C   0  0  0  0  0  0  0  0  0  0  0  0
    7.7669   -7.5451   29.8644 C   0  0  0  0  0  0  0  0  0  0  0  0
    8.2297   -6.9946   31.0419 C   0  0  0  0  0  0  0  0  0  0  0  0
    9.3219   -7.7294   31.5954 C   0  0  0  0  0  0  0  0  0  0  0  0
    9.6732   -8.8052   30.8117 C   0  0  0  0  0  0  0  0  0  0  0  0
    8.7145   -8.9037   29.4040 S   0  0  0  0  0  0  0  0  0  0  0  0
    6.1851   -7.8199   28.0058 N   0  0  0  0  0  0  0  0  0  0  0  0
    6.0935   -6.1404   25.3695 C   0  0  0  0  0  0  0  0  0  0  0  0
    6.6148   -7.2462   24.4979 C   0  0  0  0  0  0  0  0  0  0  0  0
    5.6729   -8.2577   25.2016 C   0  0  0  0  0  0  0  0  0  0  0  0
    2.0508   -2.8609   28.0336 C   0  0  0  0  0  0  0  0  0  0  0  0
    2.9142   -2.0257   29.0333 C   0  0  0  0  0  0  0  0  0  0  0  0
    2.3379   -0.8902   29.6401 C   0  0  0  0  0  0  0  0  0  0  0  0
    2.9381   -0.2569   30.7346 C   0  0  0  0  0  0  0  0  0  0  0  0
    4.1545   -0.7144   31.2448 C   0  0  0  0  0  0  0  0  0  0  0  0
    4.7886   -0.0562   32.4405 C   0  0  0  0  0  0  0  0  0  0  0  0
    3.8183    0.1539   33.4604 O   0  0  0  0  0  0  0  0  0  0  0  0
    4.7958   -1.7597   30.5719 C   0  0  0  0  0  0  0  0  0  0  0  0
    4.1944   -2.3919   29.4704 C   0  0  0  0  0  0  0  0  0  0  0  0
    0.6986   -3.2154   28.7590 C   0  0  0  0  0  0  0  0  0  0  0  0
   -0.1502   -3.3101   33.3669 H   0  0  0  0  0  0  0  0  0  0  0  0
    1.4291   -3.0967   32.6122 H   0  0  0  0  0  0  0  0  0  0  0  0
    3.0369   -4.8424   33.3243 H   0  0  0  0  0  0  0  0  0  0  0  0
   -0.9985   -6.0802   33.1870 H   0  0  0  0  0  0  0  0  0  0  0  0
    0.4013   -5.4309   29.2902 H   0  0  0  0  0  0  0  0  0  0  0  0
    1.4798   -5.4651   30.5765 H   0  0  0  0  0  0  0  0  0  0  0  0
    2.6619   -6.1220   28.6470 H   0  0  0  0  0  0  0  0  0  0  0  0
    3.3923   -4.7991   29.5176 H   0  0  0  0  0  0  0  0  0  0  0  0
    3.7010   -4.0621   27.1773 H   0  0  0  0  0  0  0  0  0  0  0  0
    2.2726   -6.2161   26.5894 H   0  0  0  0  0  0  0  0  0  0  0  0
    1.1614   -5.0522   27.0229 H   0  0  0  0  0  0  0  0  0  0  0  0
   -0.2016   -5.3466   25.2772 H   0  0  0  0  0  0  0  0  0  0  0  0
   -0.1278   -4.7424   24.3714 H   0  0  0  0  0  0  0  0  0  0  0  0
    1.3066   -4.4461   22.9573 H   0  0  0  0  0  0  0  0  0  0  0  0
    1.0817   -8.9289   21.9183 H   0  0  0  0  0  0  0  0  0  0  0  0
    3.4278   -5.7205   25.1025 H   0  0  0  0  0  0  0  0  0  0  0  0
    7.7848   -6.1208   31.5040 H   0  0  0  0  0  0  0  0  0  0  0  0
    9.8176   -7.4852   32.5272 H   0  0  0  0  0  0  0  0  0  0  0  0
   10.4486   -9.5374   30.9961 H   0  0  0  0  0  0  0  0  0  0  0  0
    6.6761   -8.6116   27.6229 H   0  0  0  0  0  0  0  0  0  0  0  0
    6.8379   -5.8341   26.1179 H   0  0  0  0  0  0  0  0  0  0  0  0
    5.7968   -5.2179   24.8746 H   0  0  0  0  0  0  0  0  0  0  0  0
    7.6758   -7.4561   24.6511 H   0  0  0  0  0  0  0  0  0  0  0  0
    6.4290   -7.0366   23.4494 H   0  0  0  0  0  0  0  0  0  0  0  0
    6.2592   -8.9623   25.7947 H   0  0  0  0  0  0  0  0  0  0  0  0
    4.9384   -8.8828   24.6962 H   0  0  0  0  0  0  0  0  0  0  0  0
    1.8727   -2.1732   27.2157 H   0  0  0  0  0  0  0  0  0  0  0  0
    1.3718   -0.5158   29.3076 H   0  0  0  0  0  0  0  0  0  0  0  0
    2.4316    0.5821   31.2080 H   0  0  0  0  0  0  0  0  0  0  0  0
    5.5829   -0.6840   32.8573 H   0  0  0  0  0  0  0  0  0  0  0  0
    5.2147    0.9088   32.1470 H   0  0  0  0  0  0  0  0  0  0  0  0
    4.2745    0.6164   34.1829 H   0  0  0  0  0  0  0  0  0  0  0  0
    5.7714   -2.1106   30.9027 H   0  0  0  0  0  0  0  0  0  0  0  0
    4.7448   -3.2060   29.0037 H   0  0  0  0  0  0  0  0  0  0  0  0
    0.1279   -2.2735   28.7917 H   0  0  0  0  0  0  0  0  0  0  0  0
   -0.0308   -3.8280   28.2101 H   0  0  0  0  0  0  0  0  0  0  0  0
  1  2  2  0
  2  3  1  0
  3  4  1  0
  4  5  1  0
  5  6  2  0
  6  7  1  0
  7  8  2  0
  2  9  1  0
  9 10  1  0
 10 11  1  0
 11 12  1  0
 12 13  1  0
 13 14  1  0
 14 15  1  0
 15 16  1  0
 16 17  1  0
 16 18  1  0
 16 19  1  0
 19 20  2  0
 19 21  1  0
 21 22  1  0
 22 23  1  0
 23 24  2  0
 24 25  1  0
 25 26  2  0
 26 27  1  0
 27 28  2  0
 28 29  1  0
 29 30  2  0
 30 31  1  0
 26 32  1  0
 22 33  1  0
 33 34  1  0
 34 35  1  0
 12 36  1  0
 36 37  1  0
 37 38  2  0
 38 39  1  0
 39 40  2  0
 40 41  1  0
 41 42  1  0
 40 43  1  0
 43 44  2  0
 36 45  1  0
  8  4  1  0
 45  9  1  0
 35 22  1  0
 44 37  1  0
 32 23  1  0
 31 27  1  0
  3 46  1  0
  3 47  1  0
  5 48  1  0
  8 49  1  0
 10 50  1  0
 10 51  1  0
 11 52  1  0
 11 53  1  0
 12 54  1  0
 13 55  1  0
 13 56  1  0
 14 57  1  0
 14 58  1  0
 15 59  1  0
 17 60  1  0
 21 61  1  0
 28 62  1  0
 29 63  1  0
 30 64  1  0
 32 65  1  0
 33 66  1  0
 33 67  1  0
 34 68  1  0
 34 69  1  0
 35 70  1  0
 35 71  1  0
 36 72  1  0
 38 73  1  0
 39 74  1  0
 41 75  1  0
 41 76  1  0
 42 77  1  0
 43 78  1  0
 44 79  1  0
 45 80  1  0
 45 81  1  0
M  END
>  <Energy>  (387) 
697.94347712852675

>  <compound_id>  (387) 
2592

>  <target_id>  (387) 
1

>  <reference_id>  (387) 
128

>  <inspiration_ids>  (387) 
[175, 128]

>  <energy_score>  (387) 
504.3060343699635

>  <distance_score>  (387) 
4.974136113829091

>  <path>  (387) 
/opt/xchem-fragalysis-2/maxwin/BulkDock/SCRATCH/505736/C2592-P128/C2592-P128.minimised.mol

>  <scratch_subdir>  (387) 
/opt/xchem-fragalysis-2/maxwin/BulkDock/SCRATCH/505736/C2592-P128

>  <fragmenstein_runtime>  (387) 
54.48260521888733

>  <fragmenstein_outcome>  (387) 
too moved

>  <fragmenstein_mode>  (387) 
expansion

>  <fragmenstein_error>  (387) 


$$$$
C2593-P175
     RDKit          3D

 72 78  0  0  0  0  0  0  0  0999 V2000
    6.1586   -8.9797   26.0304 O   0  0  0  0  0  0  0  0  0  0  0  0
    5.6620   -7.9433   26.2051 C   0  0  0  0  0  0  0  0  0  0  0  0
    6.1940   -6.6912   26.9258 N   0  0  0  0  0  0  0  0  0  0  0  0
    7.4615   -6.4268   27.4895 C   0  0  0  0  0  0  0  0  0  0  0  0
    7.3918   -6.9471   28.8935 C   0  0  0  0  0  0  0  0  0  0  0  0
    7.4705   -6.3216   30.0358 N   0  0  0  0  0  0  0  0  0  0  0  0
    7.8538   -7.2855   30.9518 N   0  0  0  0  0  0  0  0  0  0  0  0
    7.9425   -8.4340   30.3069 C   0  0  0  0  0  0  0  0  0  0  0  0
    8.6093   -9.6231   30.6900 C   0  0  0  0  0  0  0  0  0  0  0  0
    9.0763   -9.9503   31.9394 C   0  0  0  0  0  0  0  0  0  0  0  0
    9.7524  -11.2035   31.9409 C   0  0  0  0  0  0  0  0  0  0  0  0
    9.7825  -11.7856   30.6931 C   0  0  0  0  0  0  0  0  0  0  0  0
    9.0077  -10.8198   29.5237 S   0  0  0  0  0  0  0  0  0  0  0  0
    7.3682   -8.2915   29.0905 N   0  0  0  0  0  0  0  0  0  0  0  0
    8.6412   -7.0971   26.7328 C   0  0  0  0  0  0  0  0  0  0  0  0
    8.6971   -5.8367   25.9171 C   0  0  0  0  0  0  0  0  0  0  0  0
    8.0621   -5.0906   27.1137 C   0  0  0  0  0  0  0  0  0  0  0  0
    4.2428   -7.5060   25.7843 C   0  0  0  0  0  0  0  0  0  0  0  0
    4.7088   -6.6838   24.2250 S   0  0  0  0  0  0  0  0  0  0  0  0
    3.2587   -8.8601   25.2310 Cl  0  0  0  0  0  0  0  0  0  0  0  0
    3.3928   -7.1577   27.0246 N   0  0  0  0  0  0  0  0  0  0  0  0
    3.1290   -5.8838   27.7232 C   0  0  0  0  0  0  0  0  0  0  0  0
    2.3916   -5.8300   29.2258 C   0  0  0  0  0  0  0  0  0  0  0  0
    2.8246   -4.8087   30.0200 C   0  0  0  0  0  0  0  0  0  0  0  0
    2.3435   -4.5193   31.3708 C   0  0  0  0  0  0  0  0  0  0  0  0
    1.3689   -5.2650   31.9099 C   0  0  0  0  0  0  0  0  0  0  0  0
    1.0289   -4.9050   33.2477 N   0  0  0  0  0  0  0  0  0  0  0  0
   -0.3452   -4.5125   33.6496 C   0  0  0  0  0  0  0  0  0  0  0  0
   -0.3417   -4.5078   35.1809 C   0  0  0  0  0  0  0  0  0  0  0  0
    0.3355   -5.8185   35.5729 C   0  0  0  0  0  0  0  0  0  0  0  0
    0.7513   -6.0126   37.0056 C   0  0  0  0  0  0  0  0  0  0  0  0
    0.5793   -7.2756   37.5966 C   0  0  0  0  0  0  0  0  0  0  0  0
    0.9465   -7.5036   38.9236 C   0  0  0  0  0  0  0  0  0  0  0  0
    1.4952   -6.4741   39.6811 C   0  0  0  0  0  0  0  0  0  0  0  0
    1.6806   -5.2182   39.1092 C   0  0  0  0  0  0  0  0  0  0  0  0
    1.3128   -4.9880   37.7810 C   0  0  0  0  0  0  0  0  0  0  0  0
    1.7611   -5.9059   34.4730 S   0  0  0  0  0  0  0  0  0  0  0  0
    1.8964   -7.2538   33.9594 O   0  0  0  0  0  0  0  0  0  0  0  0
    2.8938   -5.1620   34.9753 O   0  0  0  0  0  0  0  0  0  0  0  0
    0.8475   -6.3090   31.1596 N   0  0  0  0  0  0  0  0  0  0  0  0
   -0.1205   -7.2317   31.4600 C   0  0  0  0  0  0  0  0  0  0  0  0
   -0.2637   -8.0728   30.4665 N   0  0  0  0  0  0  0  0  0  0  0  0
    0.6940   -7.7614   29.5220 N   0  0  0  0  0  0  0  0  0  0  0  0
    1.3175   -6.6430   29.8699 C   0  0  0  0  0  0  0  0  0  0  0  0
    5.5323   -5.9353   26.8213 H   0  0  0  0  0  0  0  0  0  0  0  0
    8.9456   -9.3189   32.8109 H   0  0  0  0  0  0  0  0  0  0  0  0
   10.1962  -11.6587   32.8181 H   0  0  0  0  0  0  0  0  0  0  0  0
   10.2231  -12.7347   30.4170 H   0  0  0  0  0  0  0  0  0  0  0  0
    7.3471   -8.9966   28.3663 H   0  0  0  0  0  0  0  0  0  0  0  0
    9.5466   -7.2580   27.3345 H   0  0  0  0  0  0  0  0  0  0  0  0
    8.4582   -8.0107   26.1626 H   0  0  0  0  0  0  0  0  0  0  0  0
    8.0374   -5.9164   25.0478 H   0  0  0  0  0  0  0  0  0  0  0  0
    9.7153   -5.5459   25.6520 H   0  0  0  0  0  0  0  0  0  0  0  0
    8.7945   -4.6971   27.8287 H   0  0  0  0  0  0  0  0  0  0  0  0
    7.3675   -4.2884   26.8481 H   0  0  0  0  0  0  0  0  0  0  0  0
    5.1419   -7.8032   23.6102 H   0  0  0  0  0  0  0  0  0  0  0  0
    2.4828   -7.5417   26.7927 H   0  0  0  0  0  0  0  0  0  0  0  0
    2.5311   -5.2431   27.0649 H   0  0  0  0  0  0  0  0  0  0  0  0
    4.0776   -5.3607   27.8644 H   0  0  0  0  0  0  0  0  0  0  0  0
    3.6006   -4.1270   29.6724 H   0  0  0  0  0  0  0  0  0  0  0  0
    2.8167   -3.7041   31.9129 H   0  0  0  0  0  0  0  0  0  0  0  0
   -1.0890   -5.2150   33.2657 H   0  0  0  0  0  0  0  0  0  0  0  0
   -0.5754   -3.5133   33.2673 H   0  0  0  0  0  0  0  0  0  0  0  0
   -1.3493   -4.4307   35.5979 H   0  0  0  0  0  0  0  0  0  0  0  0
    0.2264   -3.6379   35.5308 H   0  0  0  0  0  0  0  0  0  0  0  0
   -0.3246   -6.6422   35.2668 H   0  0  0  0  0  0  0  0  0  0  0  0
    0.1504   -8.1061   37.0337 H   0  0  0  0  0  0  0  0  0  0  0  0
    0.8023   -8.4898   39.3587 H   0  0  0  0  0  0  0  0  0  0  0  0
    1.7840   -6.6514   40.7134 H   0  0  0  0  0  0  0  0  0  0  0  0
    2.1205   -4.4156   39.6961 H   0  0  0  0  0  0  0  0  0  0  0  0
    1.4950   -4.0002   37.3638 H   0  0  0  0  0  0  0  0  0  0  0  0
   -0.6600   -7.2655   32.3939 H   0  0  0  0  0  0  0  0  0  0  0  0
  1  2  2  0
  2  3  1  0
  3  4  1  0
  4  5  1  0
  5  6  2  0
  6  7  1  0
  7  8  2  0
  8  9  1  0
  9 10  2  0
 10 11  1  0
 11 12  2  0
 12 13  1  0
  8 14  1  0
  4 15  1  0
 15 16  1  0
 16 17  1  0
  2 18  1  0
 18 19  1  0
 18 20  1  0
 18 21  1  0
 21 22  1  0
 22 23  1  0
 23 24  2  0
 24 25  1  0
 25 26  2  0
 26 27  1  0
 27 28  1  0
 28 29  1  0
 29 30  1  0
 30 31  1  0
 31 32  2  0
 32 33  1  0
 33 34  2  0
 34 35  1  0
 35 36  2  0
 30 37  1  0
 37 38  2  0
 37 39  2  0
 26 40  1  0
 40 41  1  0
 41 42  2  0
 42 43  1  0
 43 44  2  0
 17  4  1  0
 44 23  1  0
 14  5  1  0
 37 27  1  0
 44 40  1  0
 13  9  1  0
 36 31  1  0
  3 45  1  0
 10 46  1  0
 11 47  1  0
 12 48  1  0
 14 49  1  0
 15 50  1  0
 15 51  1  0
 16 52  1  0
 16 53  1  0
 17 54  1  0
 17 55  1  0
 19 56  1  0
 21 57  1  0
 22 58  1  0
 22 59  1  0
 24 60  1  0
 25 61  1  0
 28 62  1  0
 28 63  1  0
 29 64  1  0
 29 65  1  0
 30 66  1  0
 32 67  1  0
 33 68  1  0
 34 69  1  0
 35 70  1  0
 36 71  1  0
 41 72  1  0
M  END
>  <Energy>  (388) 
178.47494806231975

>  <compound_id>  (388) 
2593

>  <target_id>  (388) 
1

>  <reference_id>  (388) 
175

>  <inspiration_ids>  (388) 
[175, 129]

>  <energy_score>  (388) 
-33.489790152721866

>  <distance_score>  (388) 
5.093082198423324

>  <path>  (388) 
/opt/xchem-fragalysis-2/maxwin/BulkDock/SCRATCH/505736/C2593-P175/C2593-P175.minimised.mol

>  <scratch_subdir>  (388) 
/opt/xchem-fragalysis-2/maxwin/BulkDock/SCRATCH/505736/C2593-P175

>  <fragmenstein_runtime>  (388) 
17.90432333946228

>  <fragmenstein_outcome>  (388) 
too moved

>  <fragmenstein_mode>  (388) 
expansion

>  <fragmenstein_error>  (388) 


$$$$
C2593-P129
     RDKit          3D

 72 78  0  0  0  0  0  0  0  0999 V2000
    4.0976   -6.5431   28.6352 O   0  0  0  0  0  0  0  0  0  0  0  0
    4.6640   -5.7613   27.9162 C   0  0  0  0  0  0  0  0  0  0  0  0
    5.9817   -5.7922   27.3567 N   0  0  0  0  0  0  0  0  0  0  0  0
    7.0089   -6.8133   27.4004 C   0  0  0  0  0  0  0  0  0  0  0  0
    7.3741   -7.1899   28.8555 C   0  0  0  0  0  0  0  0  0  0  0  0
    7.3393   -6.3699   29.8846 N   0  0  0  0  0  0  0  0  0  0  0  0
    7.8590   -7.0434   30.9703 N   0  0  0  0  0  0  0  0  0  0  0  0
    8.2048   -8.2487   30.5689 C   0  0  0  0  0  0  0  0  0  0  0  0
    8.8326   -9.2647   31.3461 C   0  0  0  0  0  0  0  0  0  0  0  0
    9.0189   -9.2744   32.7122 C   0  0  0  0  0  0  0  0  0  0  0  0
    9.6773  -10.4575   33.1607 C   0  0  0  0  0  0  0  0  0  0  0  0
    9.9802  -11.3069   32.1204 C   0  0  0  0  0  0  0  0  0  0  0  0
    9.4867  -10.6693   30.6165 S   0  0  0  0  0  0  0  0  0  0  0  0
    7.8689   -8.3922   29.2556 N   0  0  0  0  0  0  0  0  0  0  0  0
    8.2494   -6.5522   26.5323 C   0  0  0  0  0  0  0  0  0  0  0  0
    7.5225   -7.2726   25.3810 C   0  0  0  0  0  0  0  0  0  0  0  0
    6.6722   -7.9856   26.4389 C   0  0  0  0  0  0  0  0  0  0  0  0
    3.8379   -4.5231   27.3802 C   0  0  0  0  0  0  0  0  0  0  0  0
    4.6867   -3.3133   26.3106 S   0  0  0  0  0  0  0  0  0  0  0  0
    2.7396   -5.3804   26.2801 Cl  0  0  0  0  0  0  0  0  0  0  0  0
    2.8742   -3.9607   28.3320 N   0  0  0  0  0  0  0  0  0  0  0  0
    3.3974   -3.7534   29.6794 C   0  0  0  0  0  0  0  0  0  0  0  0
    2.4475   -4.1731   30.8121 C   0  0  0  0  0  0  0  0  0  0  0  0
    2.5492   -3.5046   31.9903 C   0  0  0  0  0  0  0  0  0  0  0  0
    1.8733   -3.9231   33.2120 C   0  0  0  0  0  0  0  0  0  0  0  0
    1.1259   -5.0381   33.1842 C   0  0  0  0  0  0  0  0  0  0  0  0
    0.6136   -5.5553   34.4102 N   0  0  0  0  0  0  0  0  0  0  0  0
   -0.2661   -4.7542   35.3043 C   0  0  0  0  0  0  0  0  0  0  0  0
    0.1667   -5.0014   36.7534 C   0  0  0  0  0  0  0  0  0  0  0  0
    0.7701   -6.4082   36.8005 C   0  0  0  0  0  0  0  0  0  0  0  0
    1.5554   -6.7479   38.0417 C   0  0  0  0  0  0  0  0  0  0  0  0
    1.2475   -7.9298   38.7317 C   0  0  0  0  0  0  0  0  0  0  0  0
    1.9285   -8.2832   39.8977 C   0  0  0  0  0  0  0  0  0  0  0  0
    2.9308   -7.4579   40.3965 C   0  0  0  0  0  0  0  0  0  0  0  0
    3.2491   -6.2789   39.7289 C   0  0  0  0  0  0  0  0  0  0  0  0
    2.5649   -5.9243   38.5632 C   0  0  0  0  0  0  0  0  0  0  0  0
    1.8051   -6.4327   35.3325 S   0  0  0  0  0  0  0  0  0  0  0  0
    1.9284   -7.7513   34.7469 O   0  0  0  0  0  0  0  0  0  0  0  0
    2.9513   -5.5634   35.5000 O   0  0  0  0  0  0  0  0  0  0  0  0
    0.9289   -5.6849   31.9721 N   0  0  0  0  0  0  0  0  0  0  0  0
    0.1488   -6.7605   31.6501 C   0  0  0  0  0  0  0  0  0  0  0  0
    0.2142   -6.9914   30.3586 N   0  0  0  0  0  0  0  0  0  0  0  0
    1.0902   -6.0709   29.8147 N   0  0  0  0  0  0  0  0  0  0  0  0
    1.5213   -5.2844   30.7819 C   0  0  0  0  0  0  0  0  0  0  0  0
    6.0920   -4.9979   26.7243 H   0  0  0  0  0  0  0  0  0  0  0  0
    8.6876   -8.4716   33.3613 H   0  0  0  0  0  0  0  0  0  0  0  0
    9.9124  -10.6745   34.1955 H   0  0  0  0  0  0  0  0  0  0  0  0
   10.4685  -12.2716   32.1696 H   0  0  0  0  0  0  0  0  0  0  0  0
    8.0325   -9.2146   28.6952 H   0  0  0  0  0  0  0  0  0  0  0  0
    8.5058   -5.5012   26.4094 H   0  0  0  0  0  0  0  0  0  0  0  0
    9.1588   -7.0781   26.8519 H   0  0  0  0  0  0  0  0  0  0  0  0
    8.1434   -7.9477   24.7979 H   0  0  0  0  0  0  0  0  0  0  0  0
    6.9503   -6.6168   24.7174 H   0  0  0  0  0  0  0  0  0  0  0  0
    5.6207   -8.1053   26.1608 H   0  0  0  0  0  0  0  0  0  0  0  0
    7.0734   -8.9672   26.7126 H   0  0  0  0  0  0  0  0  0  0  0  0
    3.7897   -2.3406   26.5190 H   0  0  0  0  0  0  0  0  0  0  0  0
    2.1518   -4.6879   28.3977 H   0  0  0  0  0  0  0  0  0  0  0  0
    3.6291   -2.6848   29.7705 H   0  0  0  0  0  0  0  0  0  0  0  0
    4.3427   -4.2786   29.8559 H   0  0  0  0  0  0  0  0  0  0  0  0
    3.2460   -2.6752   32.1008 H   0  0  0  0  0  0  0  0  0  0  0  0
    2.0982   -3.3786   34.1234 H   0  0  0  0  0  0  0  0  0  0  0  0
   -1.2852   -5.1262   35.1682 H   0  0  0  0  0  0  0  0  0  0  0  0
   -0.2526   -3.6860   35.0705 H   0  0  0  0  0  0  0  0  0  0  0  0
   -0.6738   -4.8931   37.4473 H   0  0  0  0  0  0  0  0  0  0  0  0
    0.9065   -4.2395   37.0272 H   0  0  0  0  0  0  0  0  0  0  0  0
   -0.0191   -7.1509   36.6246 H   0  0  0  0  0  0  0  0  0  0  0  0
    0.4668   -8.5952   38.3659 H   0  0  0  0  0  0  0  0  0  0  0  0
    1.6712   -9.2056   40.4116 H   0  0  0  0  0  0  0  0  0  0  0  0
    3.4635   -7.7322   41.3028 H   0  0  0  0  0  0  0  0  0  0  0  0
    4.0344   -5.6326   40.1134 H   0  0  0  0  0  0  0  0  0  0  0  0
    2.8487   -4.9977   38.0675 H   0  0  0  0  0  0  0  0  0  0  0  0
   -0.4316   -7.3122   32.3759 H   0  0  0  0  0  0  0  0  0  0  0  0
  1  2  2  0
  2  3  1  0
  3  4  1  0
  4  5  1  0
  5  6  2  0
  6  7  1  0
  7  8  2  0
  8  9  1  0
  9 10  2  0
 10 11  1  0
 11 12  2  0
 12 13  1  0
  8 14  1  0
  4 15  1  0
 15 16  1  0
 16 17  1  0
  2 18  1  0
 18 19  1  0
 18 20  1  0
 18 21  1  0
 21 22  1  0
 22 23  1  0
 23 24  2  0
 24 25  1  0
 25 26  2  0
 26 27  1  0
 27 28  1  0
 28 29  1  0
 29 30  1  0
 30 31  1  0
 31 32  2  0
 32 33  1  0
 33 34  2  0
 34 35  1  0
 35 36  2  0
 30 37  1  0
 37 38  2  0
 37 39  2  0
 26 40  1  0
 40 41  1  0
 41 42  2  0
 42 43  1  0
 43 44  2  0
 17  4  1  0
 44 23  1  0
 14  5  1  0
 37 27  1  0
 44 40  1  0
 13  9  1  0
 36 31  1  0
  3 45  1  0
 10 46  1  0
 11 47  1  0
 12 48  1  0
 14 49  1  0
 15 50  1  0
 15 51  1  0
 16 52  1  0
 16 53  1  0
 17 54  1  0
 17 55  1  0
 19 56  1  0
 21 57  1  0
 22 58  1  0
 22 59  1  0
 24 60  1  0
 25 61  1  0
 28 62  1  0
 28 63  1  0
 29 64  1  0
 29 65  1  0
 30 66  1  0
 32 67  1  0
 33 68  1  0
 34 69  1  0
 35 70  1  0
 36 71  1  0
 41 72  1  0
M  END
>  <Energy>  (389) 
114.98216090815501

>  <compound_id>  (389) 
2593

>  <target_id>  (389) 
1

>  <reference_id>  (389) 
129

>  <inspiration_ids>  (389) 
[175, 129]

>  <energy_score>  (389) 
-70.47566187230177

>  <distance_score>  (389) 
5.246785279402835

>  <path>  (389) 
/opt/xchem-fragalysis-2/maxwin/BulkDock/SCRATCH/505736/C2593-P129/C2593-P129.minimised.mol

>  <scratch_subdir>  (389) 
/opt/xchem-fragalysis-2/maxwin/BulkDock/SCRATCH/505736/C2593-P129

>  <fragmenstein_runtime>  (389) 
30.10512065887451

>  <fragmenstein_outcome>  (389) 
too moved

>  <fragmenstein_mode>  (389) 
expansion

>  <fragmenstein_error>  (389) 


$$$$
C2593-P175
     RDKit          3D

 72 78  0  0  0  0  0  0  0  0999 V2000
    2.6936   -4.7280   26.2273 O   0  0  0  0  0  0  0  0  0  0  0  0
    3.4342   -4.1835   27.0036 C   0  0  0  0  0  0  0  0  0  0  0  0
    4.7624   -4.5339   27.4368 N   0  0  0  0  0  0  0  0  0  0  0  0
    5.6652   -5.6021   27.0006 C   0  0  0  0  0  0  0  0  0  0  0  0
    6.3561   -6.2978   28.2183 C   0  0  0  0  0  0  0  0  0  0  0  0
    6.4369   -5.7927   29.4297 N   0  0  0  0  0  0  0  0  0  0  0  0
    7.1841   -6.6636   30.1936 N   0  0  0  0  0  0  0  0  0  0  0  0
    7.5210   -7.6902   29.4389 C   0  0  0  0  0  0  0  0  0  0  0  0
    8.2610   -8.8399   29.8572 C   0  0  0  0  0  0  0  0  0  0  0  0
    8.7893   -9.0657   31.1132 C   0  0  0  0  0  0  0  0  0  0  0  0
    9.4501  -10.3247   31.2115 C   0  0  0  0  0  0  0  0  0  0  0  0
    9.4086  -11.0210   30.0251 C   0  0  0  0  0  0  0  0  0  0  0  0
    8.5823  -10.1553   28.8041 S   0  0  0  0  0  0  0  0  0  0  0  0
    7.0181   -7.4930   28.1859 N   0  0  0  0  0  0  0  0  0  0  0  0
    6.6711   -5.1007   25.9351 C   0  0  0  0  0  0  0  0  0  0  0  0
    6.4546   -6.4049   25.1482 C   0  0  0  0  0  0  0  0  0  0  0  0
    5.1322   -6.5890   25.9172 C   0  0  0  0  0  0  0  0  0  0  0  0
    2.9727   -2.7581   27.6269 C   0  0  0  0  0  0  0  0  0  0  0  0
    3.5107   -1.5220   26.3479 S   0  0  0  0  0  0  0  0  0  0  0  0
    1.2277   -2.9321   27.8979 Cl  0  0  0  0  0  0  0  0  0  0  0  0
    3.6420   -2.4131   28.8982 N   0  0  0  0  0  0  0  0  0  0  0  0
    2.8623   -1.5992   29.8698 C   0  0  0  0  0  0  0  0  0  0  0  0
    2.2615   -0.2653   29.4148 C   0  0  0  0  0  0  0  0  0  0  0  0
    3.0529    0.7054   28.8946 C   0  0  0  0  0  0  0  0  0  0  0  0
    2.5332    1.9586   28.3661 C   0  0  0  0  0  0  0  0  0  0  0  0
    1.2065    2.1676   28.3527 C   0  0  0  0  0  0  0  0  0  0  0  0
    0.8418    3.4469   27.8254 N   0  0  0  0  0  0  0  0  0  0  0  0
   -0.0623    4.3805   28.5539 C   0  0  0  0  0  0  0  0  0  0  0  0
   -1.0775    4.9629   27.5548 C   0  0  0  0  0  0  0  0  0  0  0  0
   -0.3698    4.9997   26.1986 C   0  0  0  0  0  0  0  0  0  0  0  0
   -1.1792    5.1841   24.9397 C   0  0  0  0  0  0  0  0  0  0  0  0
   -0.6421    5.9500   23.8900 C   0  0  0  0  0  0  0  0  0  0  0  0
   -1.3336    6.1056   22.6866 C   0  0  0  0  0  0  0  0  0  0  0  0
   -2.5692    5.4914   22.5086 C   0  0  0  0  0  0  0  0  0  0  0  0
   -3.1128    4.7248   23.5346 C   0  0  0  0  0  0  0  0  0  0  0  0
   -2.4272    4.5759   24.7422 C   0  0  0  0  0  0  0  0  0  0  0  0
    0.4105    3.3857   26.1570 S   0  0  0  0  0  0  0  0  0  0  0  0
    1.6258    3.3970   25.3764 O   0  0  0  0  0  0  0  0  0  0  0  0
   -0.5970    2.3559   26.0261 O   0  0  0  0  0  0  0  0  0  0  0  0
    0.3704    1.1867   28.8873 N   0  0  0  0  0  0  0  0  0  0  0  0
   -0.9882    1.0747   28.9760 C   0  0  0  0  0  0  0  0  0  0  0  0
   -1.3111    0.0725   29.7633 N   0  0  0  0  0  0  0  0  0  0  0  0
   -0.1490   -0.5896   30.0908 N   0  0  0  0  0  0  0  0  0  0  0  0
    0.8517    0.0319   29.4994 C   0  0  0  0  0  0  0  0  0  0  0  0
    5.0534   -3.8873   28.1686 H   0  0  0  0  0  0  0  0  0  0  0  0
    8.6965   -8.3588   31.9302 H   0  0  0  0  0  0  0  0  0  0  0  0
    9.9252  -10.7021   32.1090 H   0  0  0  0  0  0  0  0  0  0  0  0
    9.8200  -12.0005   29.8199 H   0  0  0  0  0  0  0  0  0  0  0  0
    7.1369   -8.1104   27.3966 H   0  0  0  0  0  0  0  0  0  0  0  0
    6.3413   -4.2082   25.3888 H   0  0  0  0  0  0  0  0  0  0  0  0
    7.6916   -4.9338   26.2917 H   0  0  0  0  0  0  0  0  0  0  0  0
    7.2057   -7.1764   25.3465 H   0  0  0  0  0  0  0  0  0  0  0  0
    6.3614   -6.2905   24.0658 H   0  0  0  0  0  0  0  0  0  0  0  0
    4.2741   -6.2521   25.3321 H   0  0  0  0  0  0  0  0  0  0  0  0
    4.9229   -7.6128   26.2427 H   0  0  0  0  0  0  0  0  0  0  0  0
    2.3904   -0.7919   26.4203 H   0  0  0  0  0  0  0  0  0  0  0  0
    4.4582   -1.8651   28.6291 H   0  0  0  0  0  0  0  0  0  0  0  0
    3.5473   -1.3729   30.6988 H   0  0  0  0  0  0  0  0  0  0  0  0
    2.0939   -2.2265   30.3387 H   0  0  0  0  0  0  0  0  0  0  0  0
    4.1286    0.5678   28.8117 H   0  0  0  0  0  0  0  0  0  0  0  0
    3.2420    2.6815   27.9724 H   0  0  0  0  0  0  0  0  0  0  0  0
    0.5574    5.1898   28.9568 H   0  0  0  0  0  0  0  0  0  0  0  0
   -0.5622    3.8928   29.3892 H   0  0  0  0  0  0  0  0  0  0  0  0
   -1.4209    5.9554   27.8634 H   0  0  0  0  0  0  0  0  0  0  0  0
   -1.9576    4.3096   27.5359 H   0  0  0  0  0  0  0  0  0  0  0  0
    0.4421    5.7375   26.2381 H   0  0  0  0  0  0  0  0  0  0  0  0
    0.3310    6.4272   23.9935 H   0  0  0  0  0  0  0  0  0  0  0  0
   -0.9024    6.7002   21.8854 H   0  0  0  0  0  0  0  0  0  0  0  0
   -3.1065    5.6048   21.5711 H   0  0  0  0  0  0  0  0  0  0  0  0
   -4.0712    4.2306   23.3986 H   0  0  0  0  0  0  0  0  0  0  0  0
   -2.8854    3.9582   25.5127 H   0  0  0  0  0  0  0  0  0  0  0  0
   -1.6779    1.7399   28.4773 H   0  0  0  0  0  0  0  0  0  0  0  0
  1  2  2  0
  2  3  1  0
  3  4  1  0
  4  5  1  0
  5  6  2  0
  6  7  1  0
  7  8  2  0
  8  9  1  0
  9 10  2  0
 10 11  1  0
 11 12  2  0
 12 13  1  0
  8 14  1  0
  4 15  1  0
 15 16  1  0
 16 17  1  0
  2 18  1  0
 18 19  1  0
 18 20  1  0
 18 21  1  0
 21 22  1  0
 22 23  1  0
 23 24  2  0
 24 25  1  0
 25 26  2  0
 26 27  1  0
 27 28  1  0
 28 29  1  0
 29 30  1  0
 30 31  1  0
 31 32  2  0
 32 33  1  0
 33 34  2  0
 34 35  1  0
 35 36  2  0
 30 37  1  0
 37 38  2  0
 37 39  2  0
 26 40  1  0
 40 41  1  0
 41 42  2  0
 42 43  1  0
 43 44  2  0
 17  4  1  0
 44 23  1  0
 14  5  1  0
 37 27  1  0
 44 40  1  0
 13  9  1  0
 36 31  1  0
  3 45  1  0
 10 46  1  0
 11 47  1  0
 12 48  1  0
 14 49  1  0
 15 50  1  0
 15 51  1  0
 16 52  1  0
 16 53  1  0
 17 54  1  0
 17 55  1  0
 19 56  1  0
 21 57  1  0
 22 58  1  0
 22 59  1  0
 24 60  1  0
 25 61  1  0
 28 62  1  0
 28 63  1  0
 29 64  1  0
 29 65  1  0
 30 66  1  0
 32 67  1  0
 33 68  1  0
 34 69  1  0
 35 70  1  0
 36 71  1  0
 41 72  1  0
M  END
>  <Energy>  (390) 
113.57785547456633

>  <compound_id>  (390) 
2593

>  <target_id>  (390) 
1

>  <reference_id>  (390) 
175

>  <inspiration_ids>  (390) 
[175, 130]

>  <energy_score>  (390) 
-71.06058794376418

>  <distance_score>  (390) 
5.619988985774108

>  <path>  (390) 
/opt/xchem-fragalysis-2/maxwin/BulkDock/SCRATCH/505736/C2593-P175/C2593-P175.minimised.mol

>  <scratch_subdir>  (390) 
/opt/xchem-fragalysis-2/maxwin/BulkDock/SCRATCH/505736/C2593-P175

>  <fragmenstein_runtime>  (390) 
37.06117010116577

>  <fragmenstein_outcome>  (390) 
too moved

>  <fragmenstein_mode>  (390) 
expansion

>  <fragmenstein_error>  (390) 


$$$$
C2593-P130
     RDKit          3D

 72 78  0  0  0  0  0  0  0  0999 V2000
    5.9324   -3.0890   27.7095 O   0  0  0  0  0  0  0  0  0  0  0  0
    5.0994   -3.5532   27.0247 C   0  0  0  0  0  0  0  0  0  0  0  0
    4.9747   -5.0040   26.4037 N   0  0  0  0  0  0  0  0  0  0  0  0
    5.8861   -6.1071   26.4314 C   0  0  0  0  0  0  0  0  0  0  0  0
    6.3876   -6.5707   27.8063 C   0  0  0  0  0  0  0  0  0  0  0  0
    6.0235   -6.1502   28.9947 N   0  0  0  0  0  0  0  0  0  0  0  0
    6.9214   -6.6887   29.9024 N   0  0  0  0  0  0  0  0  0  0  0  0
    7.7522   -7.4675   29.2412 C   0  0  0  0  0  0  0  0  0  0  0  0
    8.9022   -8.1495   29.7321 C   0  0  0  0  0  0  0  0  0  0  0  0
    9.4262   -8.0965   31.0071 C   0  0  0  0  0  0  0  0  0  0  0  0
   10.5547   -8.9574   31.1668 C   0  0  0  0  0  0  0  0  0  0  0  0
   10.8724   -9.6205   30.0017 C   0  0  0  0  0  0  0  0  0  0  0  0
    9.8241   -9.1953   28.7211 S   0  0  0  0  0  0  0  0  0  0  0  0
    7.3694   -7.5040   27.9408 N   0  0  0  0  0  0  0  0  0  0  0  0
    6.9418   -5.9843   25.3692 C   0  0  0  0  0  0  0  0  0  0  0  0
    6.5511   -7.3105   24.7595 C   0  0  0  0  0  0  0  0  0  0  0  0
    5.2770   -7.2814   25.5936 C   0  0  0  0  0  0  0  0  0  0  0  0
    3.7293   -2.8734   26.5762 C   0  0  0  0  0  0  0  0  0  0  0  0
    4.1488   -2.2718   24.4587 S   0  0  0  0  0  0  0  0  0  0  0  0
    2.5388   -4.4626   26.6770 Cl  0  0  0  0  0  0  0  0  0  0  0  0
    3.0473   -1.7988   27.4056 N   0  0  0  0  0  0  0  0  0  0  0  0
    1.8834   -1.9967   28.3363 C   0  0  0  0  0  0  0  0  0  0  0  0
    1.0138   -0.7214   28.4753 C   0  0  0  0  0  0  0  0  0  0  0  0
   -0.2653   -0.6739   28.0157 C   0  0  0  0  0  0  0  0  0  0  0  0
   -0.9981    0.5794   27.8173 C   0  0  0  0  0  0  0  0  0  0  0  0
   -0.4114    1.7376   28.1699 C   0  0  0  0  0  0  0  0  0  0  0  0
   -1.0077    2.9771   27.7492 N   0  0  0  0  0  0  0  0  0  0  0  0
   -2.4346    3.1488   27.3974 C   0  0  0  0  0  0  0  0  0  0  0  0
   -2.5157    3.3122   25.8884 C   0  0  0  0  0  0  0  0  0  0  0  0
   -1.4360    4.3301   25.5157 C   0  0  0  0  0  0  0  0  0  0  0  0
   -1.0433    4.3811   24.0505 C   0  0  0  0  0  0  0  0  0  0  0  0
    0.1244    5.0514   23.6451 C   0  0  0  0  0  0  0  0  0  0  0  0
    0.5034    5.0910   22.3014 C   0  0  0  0  0  0  0  0  0  0  0  0
   -0.2939    4.4921   21.3320 C   0  0  0  0  0  0  0  0  0  0  0  0
   -1.4816    3.8715   21.7031 C   0  0  0  0  0  0  0  0  0  0  0  0
   -1.8572    3.8230   23.0477 C   0  0  0  0  0  0  0  0  0  0  0  0
   -0.0377    3.8083   26.5536 S   0  0  0  0  0  0  0  0  0  0  0  0
    0.5587    4.9545   27.2027 O   0  0  0  0  0  0  0  0  0  0  0  0
    0.7621    2.8155   25.8697 O   0  0  0  0  0  0  0  0  0  0  0  0
    0.8108    1.6733   28.8455 N   0  0  0  0  0  0  0  0  0  0  0  0
    1.5729    2.6393   29.4447 C   0  0  0  0  0  0  0  0  0  0  0  0
    2.6281    2.0986   30.0134 N   0  0  0  0  0  0  0  0  0  0  0  0
    2.5959    0.7463   29.7593 N   0  0  0  0  0  0  0  0  0  0  0  0
    1.5125    0.4933   29.0540 C   0  0  0  0  0  0  0  0  0  0  0  0
    4.0859   -5.0944   25.9276 H   0  0  0  0  0  0  0  0  0  0  0  0
    9.0011   -7.4855   31.7960 H   0  0  0  0  0  0  0  0  0  0  0  0
   11.1057   -9.0783   32.0919 H   0  0  0  0  0  0  0  0  0  0  0  0
   11.6772  -10.3251   29.8397 H   0  0  0  0  0  0  0  0  0  0  0  0
    7.8582   -7.9855   27.2025 H   0  0  0  0  0  0  0  0  0  0  0  0
    6.7162   -5.1594   24.6894 H   0  0  0  0  0  0  0  0  0  0  0  0
    7.9608   -5.9691   25.7581 H   0  0  0  0  0  0  0  0  0  0  0  0
    7.2301   -8.1356   24.9922 H   0  0  0  0  0  0  0  0  0  0  0  0
    6.4103   -7.2286   23.6841 H   0  0  0  0  0  0  0  0  0  0  0  0
    4.3808   -7.0467   25.0123 H   0  0  0  0  0  0  0  0  0  0  0  0
    5.0663   -8.1933   26.1377 H   0  0  0  0  0  0  0  0  0  0  0  0
    4.1360   -0.9425   24.6798 H   0  0  0  0  0  0  0  0  0  0  0  0
    3.7745   -1.2594   27.8819 H   0  0  0  0  0  0  0  0  0  0  0  0
    1.2214   -2.8038   28.0240 H   0  0  0  0  0  0  0  0  0  0  0  0
    2.2730   -2.2794   29.3213 H   0  0  0  0  0  0  0  0  0  0  0  0
   -0.7383   -1.5591   27.6010 H   0  0  0  0  0  0  0  0  0  0  0  0
   -1.9165    0.5004   27.2488 H   0  0  0  0  0  0  0  0  0  0  0  0
   -2.7835    4.0617   27.8895 H   0  0  0  0  0  0  0  0  0  0  0  0
   -3.0527    2.3116   27.7220 H   0  0  0  0  0  0  0  0  0  0  0  0
   -3.5126    3.6387   25.5757 H   0  0  0  0  0  0  0  0  0  0  0  0
   -2.3186    2.3419   25.4159 H   0  0  0  0  0  0  0  0  0  0  0  0
   -1.7267    5.3311   25.8539 H   0  0  0  0  0  0  0  0  0  0  0  0
    0.7721    5.5432   24.3703 H   0  0  0  0  0  0  0  0  0  0  0  0
    1.4267    5.5880   22.0132 H   0  0  0  0  0  0  0  0  0  0  0  0
    0.0088    4.5152   20.2882 H   0  0  0  0  0  0  0  0  0  0  0  0
   -2.1184    3.4292   20.9419 H   0  0  0  0  0  0  0  0  0  0  0  0
   -2.8065    3.3491   23.2865 H   0  0  0  0  0  0  0  0  0  0  0  0
    1.3090    3.6875   29.4536 H   0  0  0  0  0  0  0  0  0  0  0  0
  1  2  2  0
  2  3  1  0
  3  4  1  0
  4  5  1  0
  5  6  2  0
  6  7  1  0
  7  8  2  0
  8  9  1  0
  9 10  2  0
 10 11  1  0
 11 12  2  0
 12 13  1  0
  8 14  1  0
  4 15  1  0
 15 16  1  0
 16 17  1  0
  2 18  1  0
 18 19  1  0
 18 20  1  0
 18 21  1  0
 21 22  1  0
 22 23  1  0
 23 24  2  0
 24 25  1  0
 25 26  2  0
 26 27  1  0
 27 28  1  0
 28 29  1  0
 29 30  1  0
 30 31  1  0
 31 32  2  0
 32 33  1  0
 33 34  2  0
 34 35  1  0
 35 36  2  0
 30 37  1  0
 37 38  2  0
 37 39  2  0
 26 40  1  0
 40 41  1  0
 41 42  2  0
 42 43  1  0
 43 44  2  0
 17  4  1  0
 44 23  1  0
 14  5  1  0
 37 27  1  0
 44 40  1  0
 13  9  1  0
 36 31  1  0
  3 45  1  0
 10 46  1  0
 11 47  1  0
 12 48  1  0
 14 49  1  0
 15 50  1  0
 15 51  1  0
 16 52  1  0
 16 53  1  0
 17 54  1  0
 17 55  1  0
 19 56  1  0
 21 57  1  0
 22 58  1  0
 22 59  1  0
 24 60  1  0
 25 61  1  0
 28 62  1  0
 28 63  1  0
 29 64  1  0
 29 65  1  0
 30 66  1  0
 32 67  1  0
 33 68  1  0
 34 69  1  0
 35 70  1  0
 36 71  1  0
 41 72  1  0
M  END
>  <Energy>  (391) 
182.72101722827753

>  <compound_id>  (391) 
2593

>  <target_id>  (391) 
1

>  <reference_id>  (391) 
130

>  <inspiration_ids>  (391) 
[175, 130]

>  <energy_score>  (391) 
-17.219875970666408

>  <distance_score>  (391) 
5.258585639167655

>  <path>  (391) 
/opt/xchem-fragalysis-2/maxwin/BulkDock/SCRATCH/505736/C2593-P130/C2593-P130.minimised.mol

>  <scratch_subdir>  (391) 
/opt/xchem-fragalysis-2/maxwin/BulkDock/SCRATCH/505736/C2593-P130

>  <fragmenstein_runtime>  (391) 
18.781931400299072

>  <fragmenstein_outcome>  (391) 
too moved

>  <fragmenstein_mode>  (391) 
expansion

>  <fragmenstein_error>  (391) 


$$$$
C2594-P175
     RDKit          3D

 74 80  0  0  0  0  0  0  0  0999 V2000
    4.0340   -5.3645   29.2757 O   0  0  0  0  0  0  0  0  0  0  0  0
    4.2051   -4.9086   28.1780 C   0  0  0  0  0  0  0  0  0  0  0  0
    5.2480   -5.1754   27.1865 N   0  0  0  0  0  0  0  0  0  0  0  0
    6.3441   -6.1463   27.1823 C   0  0  0  0  0  0  0  0  0  0  0  0
    6.8418   -6.6960   28.5430 C   0  0  0  0  0  0  0  0  0  0  0  0
    6.9763   -6.0153   29.6592 N   0  0  0  0  0  0  0  0  0  0  0  0
    7.6361   -6.8230   30.5680 N   0  0  0  0  0  0  0  0  0  0  0  0
    7.9010   -7.9689   29.9768 C   0  0  0  0  0  0  0  0  0  0  0  0
    8.5968   -9.0873   30.5294 C   0  0  0  0  0  0  0  0  0  0  0  0
    9.0778   -9.2124   31.8164 C   0  0  0  0  0  0  0  0  0  0  0  0
    9.7145  -10.4687   32.0407 C   0  0  0  0  0  0  0  0  0  0  0  0
    9.7034  -11.2624   30.9158 C   0  0  0  0  0  0  0  0  0  0  0  0
    8.9372  -10.4903   29.5991 S   0  0  0  0  0  0  0  0  0  0  0  0
    7.3835   -7.9373   28.7175 N   0  0  0  0  0  0  0  0  0  0  0  0
    7.5161   -5.6928   26.2752 C   0  0  0  0  0  0  0  0  0  0  0  0
    6.7956   -6.3510   25.0802 C   0  0  0  0  0  0  0  0  0  0  0  0
    6.0573   -7.2429   26.0921 C   0  0  0  0  0  0  0  0  0  0  0  0
    3.1597   -3.9111   27.4940 C   0  0  0  0  0  0  0  0  0  0  0  0
    3.9384   -2.5586   26.4918 S   0  0  0  0  0  0  0  0  0  0  0  0
    2.5620   -5.0168   26.2051 Cl  0  0  0  0  0  0  0  0  0  0  0  0
    1.9634   -3.4557   28.2274 N   0  0  0  0  0  0  0  0  0  0  0  0
    1.2986   -4.4078   29.1590 C   0  0  0  0  0  0  0  0  0  0  0  0
   -0.2918   -4.3485   29.4559 C   0  0  0  0  0  0  0  0  0  0  0  0
   -0.7506   -3.0033   29.9064 N   0  0  0  0  0  0  0  0  0  0  0  0
   -1.0251   -2.0534   28.8211 C   0  0  0  0  0  0  0  0  0  0  0  0
   -0.6059   -0.6297   29.0968 C   0  0  0  0  0  0  0  0  0  0  0  0
    0.1809   -0.2360   30.1231 C   0  0  0  0  0  0  0  0  0  0  0  0
    0.5988    1.1551   30.2290 C   0  0  0  0  0  0  0  0  0  0  0  0
    0.2410    2.0720   29.3105 C   0  0  0  0  0  0  0  0  0  0  0  0
   -0.5937    1.6850   28.2307 C   0  0  0  0  0  0  0  0  0  0  0  0
   -1.0895    2.3470   27.2076 N   0  0  0  0  0  0  0  0  0  0  0  0
   -1.8708    1.4785   26.4830 N   0  0  0  0  0  0  0  0  0  0  0  0
   -1.8126    0.3069   27.0745 C   0  0  0  0  0  0  0  0  0  0  0  0
   -1.0019    0.3598   28.1754 N   0  0  0  0  0  0  0  0  0  0  0  0
   -1.2071   -4.9945   28.3760 C   0  0  0  0  0  0  0  0  0  0  0  0
   -1.8403   -6.2764   28.3960 N   0  0  0  0  0  0  0  0  0  0  0  0
   -2.2730   -6.5136   26.9611 N   0  0  0  0  0  0  0  0  0  0  0  0
   -1.7593   -5.3675   26.0680 C   0  0  0  0  0  0  0  0  0  0  0  0
   -2.3108   -4.8193   24.3390 C   0  0  0  0  0  0  0  0  0  0  0  0
   -2.8239   -5.9542   23.6402 C   0  0  0  0  0  0  0  0  0  0  0  0
   -4.0677   -6.3435   22.4367 C   0  0  0  0  0  0  0  0  0  0  0  0
   -4.3678   -5.1034   21.5727 C   0  0  0  0  0  0  0  0  0  0  0  0
   -3.9831   -3.6975   22.3126 C   0  0  0  0  0  0  0  0  0  0  0  0
   -3.2200   -3.5794   23.9080 C   0  0  0  0  0  0  0  0  0  0  0  0
   -1.0996   -4.5334   27.0575 N   0  0  0  0  0  0  0  0  0  0  0  0
    5.0310   -4.6668   26.3293 H   0  0  0  0  0  0  0  0  0  0  0  0
    8.9717   -8.4361   32.5662 H   0  0  0  0  0  0  0  0  0  0  0  0
   10.1551  -10.7742   32.9821 H   0  0  0  0  0  0  0  0  0  0  0  0
   10.1086  -12.2596   30.8049 H   0  0  0  0  0  0  0  0  0  0  0  0
    7.4840   -8.6714   28.0347 H   0  0  0  0  0  0  0  0  0  0  0  0
    8.4875   -6.1512   26.4980 H   0  0  0  0  0  0  0  0  0  0  0  0
    7.6496   -4.6095   26.2258 H   0  0  0  0  0  0  0  0  0  0  0  0
    6.1455   -5.6685   24.5248 H   0  0  0  0  0  0  0  0  0  0  0  0
    7.4295   -6.8895   24.3755 H   0  0  0  0  0  0  0  0  0  0  0  0
    6.5475   -8.2131   26.2213 H   0  0  0  0  0  0  0  0  0  0  0  0
    5.0044   -7.4320   25.8579 H   0  0  0  0  0  0  0  0  0  0  0  0
    4.2190   -1.7797   27.5463 H   0  0  0  0  0  0  0  0  0  0  0  0
    1.2870   -3.1841   27.5155 H   0  0  0  0  0  0  0  0  0  0  0  0
    1.5443   -5.4407   28.9032 H   0  0  0  0  0  0  0  0  0  0  0  0
    1.7781   -4.2312   30.1313 H   0  0  0  0  0  0  0  0  0  0  0  0
   -0.4083   -4.9938   30.3390 H   0  0  0  0  0  0  0  0  0  0  0  0
   -1.6201   -3.1240   30.4178 H   0  0  0  0  0  0  0  0  0  0  0  0
   -0.5143   -2.3325   27.9018 H   0  0  0  0  0  0  0  0  0  0  0  0
   -2.1010   -2.0766   28.6215 H   0  0  0  0  0  0  0  0  0  0  0  0
    0.5649   -0.9389   30.8565 H   0  0  0  0  0  0  0  0  0  0  0  0
    1.2382    1.4292   31.0631 H   0  0  0  0  0  0  0  0  0  0  0  0
    0.5604    3.1065   29.3756 H   0  0  0  0  0  0  0  0  0  0  0  0
   -2.3155   -0.5903   26.7483 H   0  0  0  0  0  0  0  0  0  0  0  0
   -2.8390   -7.3100   26.7067 H   0  0  0  0  0  0  0  0  0  0  0  0
   -2.0725   -6.7247   23.8343 H   0  0  0  0  0  0  0  0  0  0  0  0
   -4.1007   -7.3894   22.1517 H   0  0  0  0  0  0  0  0  0  0  0  0
   -5.0834   -5.0412   20.7617 H   0  0  0  0  0  0  0  0  0  0  0  0
   -4.8565   -3.1584   22.0770 H   0  0  0  0  0  0  0  0  0  0  0  0
   -3.1908   -2.6132   24.4019 H   0  0  0  0  0  0  0  0  0  0  0  0
  1  2  2  0
  2  3  1  0
  3  4  1  0
  4  5  1  0
  5  6  2  0
  6  7  1  0
  7  8  2  0
  8  9  1  0
  9 10  2  0
 10 11  1  0
 11 12  2  0
 12 13  1  0
  8 14  1  0
  4 15  1  0
 15 16  1  0
 16 17  1  0
  2 18  1  0
 18 19  1  0
 18 20  1  0
 18 21  1  0
 21 22  1  0
 22 23  1  0
 23 24  1  0
 24 25  1  0
 25 26  1  0
 26 27  2  0
 27 28  1  0
 28 29  2  0
 29 30  1  0
 30 31  2  0
 31 32  1  0
 32 33  2  0
 33 34  1  0
 23 35  1  0
 35 36  2  0
 36 37  1  0
 37 38  1  0
 38 39  1  0
 39 40  2  0
 40 41  1  0
 41 42  2  0
 42 43  1  0
 43 44  2  0
 38 45  2  0
 17  4  1  0
 34 26  1  0
 45 35  1  0
 14  5  1  0
 34 30  1  0
 44 39  1  0
 13  9  1  0
  3 46  1  0
 10 47  1  0
 11 48  1  0
 12 49  1  0
 14 50  1  0
 15 51  1  0
 15 52  1  0
 16 53  1  0
 16 54  1  0
 17 55  1  0
 17 56  1  0
 19 57  1  0
 21 58  1  0
 22 59  1  0
 22 60  1  0
 23 61  1  0
 24 62  1  0
 25 63  1  0
 25 64  1  0
 27 65  1  0
 28 66  1  0
 29 67  1  0
 33 68  1  0
 37 69  1  0
 40 70  1  0
 41 71  1  0
 42 72  1  0
 43 73  1  0
 44 74  1  0
M  END
>  <Energy>  (392) 
436.54135228099562

>  <compound_id>  (392) 
2594

>  <target_id>  (392) 
1

>  <reference_id>  (392) 
175

>  <inspiration_ids>  (392) 
[175, 131]

>  <energy_score>  (392) 
186.72988106534308

>  <distance_score>  (392) 
5.161621321025458

>  <path>  (392) 
/opt/xchem-fragalysis-2/maxwin/BulkDock/SCRATCH/505736/C2594-P175/C2594-P175.minimised.mol

>  <scratch_subdir>  (392) 
/opt/xchem-fragalysis-2/maxwin/BulkDock/SCRATCH/505736/C2594-P175

>  <fragmenstein_runtime>  (392) 
35.38917136192322

>  <fragmenstein_outcome>  (392) 
too moved

>  <fragmenstein_mode>  (392) 
expansion

>  <fragmenstein_error>  (392) 


$$$$
C2594-P131
     RDKit          3D

 74 80  0  0  0  0  0  0  0  0999 V2000
    6.1309   -2.9859   28.5104 O   0  0  0  0  0  0  0  0  0  0  0  0
    5.4512   -3.0842   27.5255 C   0  0  0  0  0  0  0  0  0  0  0  0
    5.2745   -4.1991   26.5993 N   0  0  0  0  0  0  0  0  0  0  0  0
    5.7920   -5.5680   26.6349 C   0  0  0  0  0  0  0  0  0  0  0  0
    6.5387   -5.9717   27.9372 C   0  0  0  0  0  0  0  0  0  0  0  0
    5.9651   -6.0866   29.1140 N   0  0  0  0  0  0  0  0  0  0  0  0
    6.8740   -6.6900   29.9525 N   0  0  0  0  0  0  0  0  0  0  0  0
    7.9388   -7.0046   29.2473 C   0  0  0  0  0  0  0  0  0  0  0  0
    8.9961   -7.8655   29.6712 C   0  0  0  0  0  0  0  0  0  0  0  0
    9.2106   -8.3316   30.9529 C   0  0  0  0  0  0  0  0  0  0  0  0
   10.3167   -9.2253   31.0295 C   0  0  0  0  0  0  0  0  0  0  0  0
   10.9041   -9.4254   29.8010 C   0  0  0  0  0  0  0  0  0  0  0  0
   10.1375   -8.5203   28.5710 S   0  0  0  0  0  0  0  0  0  0  0  0
    7.8218   -6.4352   28.0125 N   0  0  0  0  0  0  0  0  0  0  0  0
    6.4755   -6.0356   25.3233 C   0  0  0  0  0  0  0  0  0  0  0  0
    5.6335   -7.3163   25.3726 C   0  0  0  0  0  0  0  0  0  0  0  0
    4.6663   -6.5908   26.2995 C   0  0  0  0  0  0  0  0  0  0  0  0
    4.4494   -1.9068   27.1031 C   0  0  0  0  0  0  0  0  0  0  0  0
    4.6327   -1.6345   25.2637 S   0  0  0  0  0  0  0  0  0  0  0  0
    4.7908   -0.4043   27.9493 Cl  0  0  0  0  0  0  0  0  0  0  0  0
    3.0499   -2.2597   27.3683 N   0  0  0  0  0  0  0  0  0  0  0  0
    2.6615   -2.6293   28.7437 C   0  0  0  0  0  0  0  0  0  0  0  0
    1.3031   -3.4578   28.8789 C   0  0  0  0  0  0  0  0  0  0  0  0
    0.1137   -2.7607   29.4500 N   0  0  0  0  0  0  0  0  0  0  0  0
   -0.4174   -1.6930   28.5939 C   0  0  0  0  0  0  0  0  0  0  0  0
   -0.1716   -0.2686   29.0133 C   0  0  0  0  0  0  0  0  0  0  0  0
    0.5590    0.1299   30.0770 C   0  0  0  0  0  0  0  0  0  0  0  0
    0.8176    1.5479   30.2892 C   0  0  0  0  0  0  0  0  0  0  0  0
    0.3588    2.4861   29.4387 C   0  0  0  0  0  0  0  0  0  0  0  0
   -0.4358    2.0922   28.3317 C   0  0  0  0  0  0  0  0  0  0  0  0
   -1.0023    2.7652   27.3533 N   0  0  0  0  0  0  0  0  0  0  0  0
   -1.7017    1.8713   26.5758 N   0  0  0  0  0  0  0  0  0  0  0  0
   -1.5368    0.6790   27.1009 C   0  0  0  0  0  0  0  0  0  0  0  0
   -0.6988    0.7394   28.1818 N   0  0  0  0  0  0  0  0  0  0  0  0
    0.9659   -4.2967   27.6386 C   0  0  0  0  0  0  0  0  0  0  0  0
    1.9293   -4.6965   26.7727 N   0  0  0  0  0  0  0  0  0  0  0  0
    1.3548   -5.6211   25.8726 N   0  0  0  0  0  0  0  0  0  0  0  0
   -0.4790   -5.1272   25.5590 C   0  0  0  0  0  0  0  0  0  0  0  0
   -1.9933   -4.9260   24.3994 C   0  0  0  0  0  0  0  0  0  0  0  0
   -2.8037   -5.9923   23.6764 C   0  0  0  0  0  0  0  0  0  0  0  0
   -4.1479   -6.3039   22.4230 C   0  0  0  0  0  0  0  0  0  0  0  0
   -4.4320   -4.9377   21.6511 C   0  0  0  0  0  0  0  0  0  0  0  0
   -3.9770   -3.6011   22.5931 C   0  0  0  0  0  0  0  0  0  0  0  0
   -3.0401   -3.6766   24.1514 C   0  0  0  0  0  0  0  0  0  0  0  0
   -0.4136   -4.4283   27.0712 N   0  0  0  0  0  0  0  0  0  0  0  0
    4.6843   -3.8995   25.8284 H   0  0  0  0  0  0  0  0  0  0  0  0
    8.5885   -8.0552   31.7964 H   0  0  0  0  0  0  0  0  0  0  0  0
   10.6459   -9.7209   31.9344 H   0  0  0  0  0  0  0  0  0  0  0  0
   11.7428  -10.0668   29.5684 H   0  0  0  0  0  0  0  0  0  0  0  0
    8.4944   -6.5020   27.2639 H   0  0  0  0  0  0  0  0  0  0  0  0
    7.5501   -6.2265   25.3483 H   0  0  0  0  0  0  0  0  0  0  0  0
    6.2704   -5.4020   24.4588 H   0  0  0  0  0  0  0  0  0  0  0  0
    5.1752   -7.6137   24.4325 H   0  0  0  0  0  0  0  0  0  0  0  0
    6.1447   -8.1698   25.8279 H   0  0  0  0  0  0  0  0  0  0  0  0
    4.2642   -7.1819   27.1233 H   0  0  0  0  0  0  0  0  0  0  0  0
    3.8309   -6.1704   25.7418 H   0  0  0  0  0  0  0  0  0  0  0  0
    3.9990   -0.4505   25.2139 H   0  0  0  0  0  0  0  0  0  0  0  0
    2.8699   -3.0867   26.7962 H   0  0  0  0  0  0  0  0  0  0  0  0
    2.6187   -1.7430   29.3822 H   0  0  0  0  0  0  0  0  0  0  0  0
    3.4402   -3.2713   29.1741 H   0  0  0  0  0  0  0  0  0  0  0  0
    1.5318   -4.2152   29.6438 H   0  0  0  0  0  0  0  0  0  0  0  0
   -0.6211   -3.4732   29.4584 H   0  0  0  0  0  0  0  0  0  0  0  0
   -0.0300   -1.7918   27.5848 H   0  0  0  0  0  0  0  0  0  0  0  0
   -1.5039   -1.8413   28.5383 H   0  0  0  0  0  0  0  0  0  0  0  0
    1.0121   -0.5773   30.7640 H   0  0  0  0  0  0  0  0  0  0  0  0
    1.4268    1.8293   31.1431 H   0  0  0  0  0  0  0  0  0  0  0  0
    0.5608    3.5422   29.5829 H   0  0  0  0  0  0  0  0  0  0  0  0
   -1.9776   -0.2369   26.7377 H   0  0  0  0  0  0  0  0  0  0  0  0
    1.4776   -6.4922   26.3680 H   0  0  0  0  0  0  0  0  0  0  0  0
   -2.1651   -6.8528   23.7545 H   0  0  0  0  0  0  0  0  0  0  0  0
   -4.2462   -7.3256   22.0871 H   0  0  0  0  0  0  0  0  0  0  0  0
   -4.9843   -4.7893   20.7359 H   0  0  0  0  0  0  0  0  0  0  0  0
   -3.7194   -2.6977   22.0695 H   0  0  0  0  0  0  0  0  0  0  0  0
   -2.9128   -2.6758   24.5590 H   0  0  0  0  0  0  0  0  0  0  0  0
  1  2  2  0
  2  3  1  0
  3  4  1  0
  4  5  1  0
  5  6  2  0
  6  7  1  0
  7  8  2  0
  8  9  1  0
  9 10  2  0
 10 11  1  0
 11 12  2  0
 12 13  1  0
  8 14  1  0
  4 15  1  0
 15 16  1  0
 16 17  1  0
  2 18  1  0
 18 19  1  0
 18 20  1  0
 18 21  1  0
 21 22  1  0
 22 23  1  0
 23 24  1  0
 24 25  1  0
 25 26  1  0
 26 27  2  0
 27 28  1  0
 28 29  2  0
 29 30  1  0
 30 31  2  0
 31 32  1  0
 32 33  2  0
 33 34  1  0
 23 35  1  0
 35 36  2  0
 36 37  1  0
 37 38  1  0
 38 39  1  0
 39 40  2  0
 40 41  1  0
 41 42  2  0
 42 43  1  0
 43 44  2  0
 38 45  2  0
 17  4  1  0
 34 26  1  0
 45 35  1  0
 14  5  1  0
 34 30  1  0
 44 39  1  0
 13  9  1  0
  3 46  1  0
 10 47  1  0
 11 48  1  0
 12 49  1  0
 14 50  1  0
 15 51  1  0
 15 52  1  0
 16 53  1  0
 16 54  1  0
 17 55  1  0
 17 56  1  0
 19 57  1  0
 21 58  1  0
 22 59  1  0
 22 60  1  0
 23 61  1  0
 24 62  1  0
 25 63  1  0
 25 64  1  0
 27 65  1  0
 28 66  1  0
 29 67  1  0
 33 68  1  0
 37 69  1  0
 40 70  1  0
 41 71  1  0
 42 72  1  0
 43 73  1  0
 44 74  1  0
M  END
>  <Energy>  (393) 
626.99976996437033

>  <compound_id>  (393) 
2594

>  <target_id>  (393) 
1

>  <reference_id>  (393) 
131

>  <inspiration_ids>  (393) 
[175, 131]

>  <energy_score>  (393) 
377.188298748704

>  <distance_score>  (393) 
5.350090572299124

>  <path>  (393) 
/opt/xchem-fragalysis-2/maxwin/BulkDock/SCRATCH/505736/C2594-P131/C2594-P131.minimised.mol

>  <scratch_subdir>  (393) 
/opt/xchem-fragalysis-2/maxwin/BulkDock/SCRATCH/505736/C2594-P131

>  <fragmenstein_runtime>  (393) 
44.57671332359314

>  <fragmenstein_outcome>  (393) 
too moved

>  <fragmenstein_mode>  (393) 
expansion

>  <fragmenstein_error>  (393) 


$$$$
C2595-P175
     RDKit          3D

 64 70  0  0  0  0  0  0  0  0999 V2000
    4.7188   -3.4508   28.3848 O   0  0  0  0  0  0  0  0  0  0  0  0
    4.6654   -4.2915   27.5758 C   0  0  0  0  0  0  0  0  0  0  0  0
    5.7602   -5.2572   27.0584 N   0  0  0  0  0  0  0  0  0  0  0  0
    7.1008   -5.4490   27.4902 C   0  0  0  0  0  0  0  0  0  0  0  0
    7.1237   -6.5938   28.4824 C   0  0  0  0  0  0  0  0  0  0  0  0
    6.7604   -6.4192   29.7276 N   0  0  0  0  0  0  0  0  0  0  0  0
    7.2908   -7.4509   30.4269 N   0  0  0  0  0  0  0  0  0  0  0  0
    7.7842   -8.3185   29.5742 C   0  0  0  0  0  0  0  0  0  0  0  0
    8.4457   -9.5116   29.9521 C   0  0  0  0  0  0  0  0  0  0  0  0
    8.7882   -9.8618   31.2410 C   0  0  0  0  0  0  0  0  0  0  0  0
    9.4765  -11.1022   31.2952 C   0  0  0  0  0  0  0  0  0  0  0  0
    9.6193  -11.6605   30.0460 C   0  0  0  0  0  0  0  0  0  0  0  0
    8.9246  -10.6872   28.8236 S   0  0  0  0  0  0  0  0  0  0  0  0
    7.6254   -7.8441   28.3060 N   0  0  0  0  0  0  0  0  0  0  0  0
    7.8125   -4.2025   28.0380 C   0  0  0  0  0  0  0  0  0  0  0  0
    8.2695   -3.9517   26.6186 C   0  0  0  0  0  0  0  0  0  0  0  0
    8.1053   -5.4785   26.3530 C   0  0  0  0  0  0  0  0  0  0  0  0
    3.3506   -4.7342   26.8516 C   0  0  0  0  0  0  0  0  0  0  0  0
    3.3943   -6.5648   26.4524 S   0  0  0  0  0  0  0  0  0  0  0  0
    3.4486   -3.8580   25.1947 Cl  0  0  0  0  0  0  0  0  0  0  0  0
    2.1761   -4.4794   27.7584 N   0  0  0  0  0  0  0  0  0  0  0  0
    2.2993   -5.2752   29.0359 C   0  0  0  0  0  0  0  0  0  0  0  0
    1.2866   -5.2089   30.2038 C   0  0  0  0  0  0  0  0  0  0  0  0
    1.4802   -4.2165   31.1070 C   0  0  0  0  0  0  0  0  0  0  0  0
    0.9418   -4.2459   32.4596 C   0  0  0  0  0  0  0  0  0  0  0  0
    0.2408   -5.3148   32.8828 C   0  0  0  0  0  0  0  0  0  0  0  0
   -0.2461   -5.4684   34.5413 S   0  0  0  0  0  0  0  0  0  0  0  0
    1.0718   -6.4820   35.0806 C   0  0  0  0  0  0  0  0  0  0  0  0
    1.8468   -7.2121   34.2986 N   0  0  0  0  0  0  0  0  0  0  0  0
    2.7739   -7.8216   35.1153 N   0  0  0  0  0  0  0  0  0  0  0  0
    2.5057   -7.4266   36.3486 C   0  0  0  0  0  0  0  0  0  0  0  0
    3.2606   -7.8219   37.4899 C   0  0  0  0  0  0  0  0  0  0  0  0
    3.0033   -7.6423   38.8342 C   0  0  0  0  0  0  0  0  0  0  0  0
    4.0687   -8.2343   39.5570 C   0  0  0  0  0  0  0  0  0  0  0  0
    4.9499   -8.7548   38.6360 C   0  0  0  0  0  0  0  0  0  0  0  0
    4.4532   -8.4962   37.3848 N   0  0  0  0  0  0  0  0  0  0  0  0
    1.4253   -6.5844   36.3975 O   0  0  0  0  0  0  0  0  0  0  0  0
   -0.0566   -6.3111   31.9500 N   0  0  0  0  0  0  0  0  0  0  0  0
   -0.8023   -7.4596   32.0537 C   0  0  0  0  0  0  0  0  0  0  0  0
   -0.8254   -8.0897   30.9030 N   0  0  0  0  0  0  0  0  0  0  0  0
   -0.0295   -7.3854   30.0276 N   0  0  0  0  0  0  0  0  0  0  0  0
    0.4082   -6.2949   30.6310 C   0  0  0  0  0  0  0  0  0  0  0  0
    5.3892   -5.8103   26.2870 H   0  0  0  0  0  0  0  0  0  0  0  0
    8.5622   -9.2467   32.1050 H   0  0  0  0  0  0  0  0  0  0  0  0
    9.8414  -11.5680   32.2024 H   0  0  0  0  0  0  0  0  0  0  0  0
   10.0879  -12.6038   29.8015 H   0  0  0  0  0  0  0  0  0  0  0  0
    8.0086   -8.2482   27.4641 H   0  0  0  0  0  0  0  0  0  0  0  0
    7.2109   -3.4072   28.4828 H   0  0  0  0  0  0  0  0  0  0  0  0
    8.6448   -4.4096   28.7245 H   0  0  0  0  0  0  0  0  0  0  0  0
    7.5680   -3.2985   26.0845 H   0  0  0  0  0  0  0  0  0  0  0  0
    9.2828   -3.5453   26.5487 H   0  0  0  0  0  0  0  0  0  0  0  0
    7.7051   -5.7787   25.3805 H   0  0  0  0  0  0  0  0  0  0  0  0
    9.0233   -6.0476   26.5433 H   0  0  0  0  0  0  0  0  0  0  0  0
    4.1409   -6.8987   27.5164 H   0  0  0  0  0  0  0  0  0  0  0  0
    1.3327   -4.8032   27.2896 H   0  0  0  0  0  0  0  0  0  0  0  0
    2.3567   -6.3431   28.8067 H   0  0  0  0  0  0  0  0  0  0  0  0
    3.2711   -5.0530   29.4936 H   0  0  0  0  0  0  0  0  0  0  0  0
    2.1887   -3.4142   30.8961 H   0  0  0  0  0  0  0  0  0  0  0  0
    1.2147   -3.4271   33.1206 H   0  0  0  0  0  0  0  0  0  0  0  0
    2.1353   -7.1473   39.2525 H   0  0  0  0  0  0  0  0  0  0  0  0
    4.1789   -8.2753   40.6334 H   0  0  0  0  0  0  0  0  0  0  0  0
    5.8857   -9.2829   38.7630 H   0  0  0  0  0  0  0  0  0  0  0  0
    4.8926   -8.7569   36.5105 H   0  0  0  0  0  0  0  0  0  0  0  0
   -1.2988   -7.7845   32.9581 H   0  0  0  0  0  0  0  0  0  0  0  0
  1  2  2  0
  2  3  1  0
  3  4  1  0
  4  5  1  0
  5  6  2  0
  6  7  1  0
  7  8  2  0
  8  9  1  0
  9 10  2  0
 10 11  1  0
 11 12  2  0
 12 13  1  0
  8 14  1  0
  4 15  1  0
 15 16  1  0
 16 17  1  0
  2 18  1  0
 18 19  1  0
 18 20  1  0
 18 21  1  0
 21 22  1  0
 22 23  1  0
 23 24  2  0
 24 25  1  0
 25 26  2  0
 26 27  1  0
 27 28  1  0
 28 29  2  0
 29 30  1  0
 30 31  2  0
 31 32  1  0
 32 33  2  0
 33 34  1  0
 34 35  2  0
 35 36  1  0
 31 37  1  0
 26 38  1  0
 38 39  1  0
 39 40  2  0
 40 41  1  0
 41 42  2  0
 17  4  1  0
 42 23  1  0
 14  5  1  0
 37 28  1  0
 42 38  1  0
 13  9  1  0
 36 32  1  0
  3 43  1  0
 10 44  1  0
 11 45  1  0
 12 46  1  0
 14 47  1  0
 15 48  1  0
 15 49  1  0
 16 50  1  0
 16 51  1  0
 17 52  1  0
 17 53  1  0
 19 54  1  0
 21 55  1  0
 22 56  1  0
 22 57  1  0
 24 58  1  0
 25 59  1  0
 33 60  1  0
 34 61  1  0
 35 62  1  0
 36 63  1  0
 39 64  1  0
M  END
>  <Energy>  (394) 
115.90171105814035

>  <compound_id>  (394) 
2595

>  <target_id>  (394) 
1

>  <reference_id>  (394) 
175

>  <inspiration_ids>  (394) 
[175, 132]

>  <energy_score>  (394) 
-42.04546371675343

>  <distance_score>  (394) 
5.073795695987994

>  <path>  (394) 
/opt/xchem-fragalysis-2/maxwin/BulkDock/SCRATCH/505736/C2595-P175/C2595-P175.minimised.mol

>  <scratch_subdir>  (394) 
/opt/xchem-fragalysis-2/maxwin/BulkDock/SCRATCH/505736/C2595-P175

>  <fragmenstein_runtime>  (394) 
13.685274839401245

>  <fragmenstein_outcome>  (394) 
too moved

>  <fragmenstein_mode>  (394) 
expansion

>  <fragmenstein_error>  (394) 


$$$$
C2595-P132
     RDKit          3D

 64 70  0  0  0  0  0  0  0  0999 V2000
    5.4882   -4.0733   28.3739 O   0  0  0  0  0  0  0  0  0  0  0  0
    4.6599   -4.5235   27.6812 C   0  0  0  0  0  0  0  0  0  0  0  0
    4.6597   -5.8290   26.8184 N   0  0  0  0  0  0  0  0  0  0  0  0
    5.6995   -6.7725   26.5681 C   0  0  0  0  0  0  0  0  0  0  0  0
    6.2677   -7.3490   27.8650 C   0  0  0  0  0  0  0  0  0  0  0  0
    5.9491   -6.9548   29.0765 N   0  0  0  0  0  0  0  0  0  0  0  0
    6.9809   -7.3336   29.9008 N   0  0  0  0  0  0  0  0  0  0  0  0
    7.8396   -8.0198   29.1797 C   0  0  0  0  0  0  0  0  0  0  0  0
    9.0909   -8.5356   29.6065 C   0  0  0  0  0  0  0  0  0  0  0  0
    9.6788   -8.3590   30.8418 C   0  0  0  0  0  0  0  0  0  0  0  0
   10.8447   -9.1643   30.9972 C   0  0  0  0  0  0  0  0  0  0  0  0
   11.1373   -9.8784   29.8561 C   0  0  0  0  0  0  0  0  0  0  0  0
   10.0419   -9.5376   28.5916 S   0  0  0  0  0  0  0  0  0  0  0  0
    7.3489   -8.1672   27.9208 N   0  0  0  0  0  0  0  0  0  0  0  0
    6.7777   -6.0858   25.7116 C   0  0  0  0  0  0  0  0  0  0  0  0
    6.7612   -7.2826   24.7747 C   0  0  0  0  0  0  0  0  0  0  0  0
    5.4400   -7.7378   25.4093 C   0  0  0  0  0  0  0  0  0  0  0  0
    3.3095   -3.8660   27.3311 C   0  0  0  0  0  0  0  0  0  0  0  0
    3.1665   -2.2036   27.9332 S   0  0  0  0  0  0  0  0  0  0  0  0
    3.5691   -3.7546   25.2918 Cl  0  0  0  0  0  0  0  0  0  0  0  0
    2.1887   -4.7997   27.6515 N   0  0  0  0  0  0  0  0  0  0  0  0
    1.2488   -4.4235   28.7598 C   0  0  0  0  0  0  0  0  0  0  0  0
    1.2781   -5.1219   30.1499 C   0  0  0  0  0  0  0  0  0  0  0  0
    1.9987   -4.4859   31.1079 C   0  0  0  0  0  0  0  0  0  0  0  0
    1.8224   -4.7082   32.5357 C   0  0  0  0  0  0  0  0  0  0  0  0
    0.8887   -5.5727   32.9750 C   0  0  0  0  0  0  0  0  0  0  0  0
    0.4833   -5.6724   34.6631 S   0  0  0  0  0  0  0  0  0  0  0  0
    1.7862   -6.6953   35.1751 C   0  0  0  0  0  0  0  0  0  0  0  0
    2.2025   -7.7529   34.5113 N   0  0  0  0  0  0  0  0  0  0  0  0
    3.2414   -8.2886   35.2341 N   0  0  0  0  0  0  0  0  0  0  0  0
    3.3882   -7.5307   36.3074 C   0  0  0  0  0  0  0  0  0  0  0  0
    4.3712   -7.7583   37.3114 C   0  0  0  0  0  0  0  0  0  0  0  0
    4.6011   -7.0955   38.5005 C   0  0  0  0  0  0  0  0  0  0  0  0
    5.7034   -7.7218   39.1336 C   0  0  0  0  0  0  0  0  0  0  0  0
    6.1181   -8.7477   38.3145 C   0  0  0  0  0  0  0  0  0  0  0  0
    5.3042   -8.7625   37.2117 N   0  0  0  0  0  0  0  0  0  0  0  0
    2.4825   -6.5004   36.3339 O   0  0  0  0  0  0  0  0  0  0  0  0
    0.1930   -6.3169   32.0168 N   0  0  0  0  0  0  0  0  0  0  0  0
   -0.7548   -7.3017   32.1489 C   0  0  0  0  0  0  0  0  0  0  0  0
   -1.1160   -7.7468   30.9688 N   0  0  0  0  0  0  0  0  0  0  0  0
   -0.4011   -7.0440   30.0232 N   0  0  0  0  0  0  0  0  0  0  0  0
    0.3720   -6.1634   30.6330 C   0  0  0  0  0  0  0  0  0  0  0  0
    3.8033   -5.8753   26.2708 H   0  0  0  0  0  0  0  0  0  0  0  0
    9.2518   -7.7347   31.6192 H   0  0  0  0  0  0  0  0  0  0  0  0
   11.4390   -9.2158   31.9018 H   0  0  0  0  0  0  0  0  0  0  0  0
   11.9629  -10.5589   29.6961 H   0  0  0  0  0  0  0  0  0  0  0  0
    7.8399   -8.5885   27.1475 H   0  0  0  0  0  0  0  0  0  0  0  0
    6.4519   -5.1553   25.2333 H   0  0  0  0  0  0  0  0  0  0  0  0
    7.7302   -5.9026   26.2184 H   0  0  0  0  0  0  0  0  0  0  0  0
    6.7079   -7.0210   23.7205 H   0  0  0  0  0  0  0  0  0  0  0  0
    7.5900   -7.9783   24.9377 H   0  0  0  0  0  0  0  0  0  0  0  0
    4.5538   -7.5128   24.8106 H   0  0  0  0  0  0  0  0  0  0  0  0
    5.4148   -8.8018   25.6433 H   0  0  0  0  0  0  0  0  0  0  0  0
    4.4019   -1.8266   27.5677 H   0  0  0  0  0  0  0  0  0  0  0  0
    2.5930   -5.6963   27.9196 H   0  0  0  0  0  0  0  0  0  0  0  0
    1.2178   -3.3462   28.9413 H   0  0  0  0  0  0  0  0  0  0  0  0
    0.2301   -4.5584   28.3886 H   0  0  0  0  0  0  0  0  0  0  0  0
    2.6429   -3.6444   30.8514 H   0  0  0  0  0  0  0  0  0  0  0  0
    2.3898   -4.0687   33.2082 H   0  0  0  0  0  0  0  0  0  0  0  0
    4.0351   -6.2529   38.8784 H   0  0  0  0  0  0  0  0  0  0  0  0
    6.1450   -7.4535   40.0853 H   0  0  0  0  0  0  0  0  0  0  0  0
    6.9195   -9.4671   38.4218 H   0  0  0  0  0  0  0  0  0  0  0  0
    5.3764   -9.4095   36.4359 H   0  0  0  0  0  0  0  0  0  0  0  0
   -1.1265   -7.6608   33.0985 H   0  0  0  0  0  0  0  0  0  0  0  0
  1  2  2  0
  2  3  1  0
  3  4  1  0
  4  5  1  0
  5  6  2  0
  6  7  1  0
  7  8  2  0
  8  9  1  0
  9 10  2  0
 10 11  1  0
 11 12  2  0
 12 13  1  0
  8 14  1  0
  4 15  1  0
 15 16  1  0
 16 17  1  0
  2 18  1  0
 18 19  1  0
 18 20  1  0
 18 21  1  0
 21 22  1  0
 22 23  1  0
 23 24  2  0
 24 25  1  0
 25 26  2  0
 26 27  1  0
 27 28  1  0
 28 29  2  0
 29 30  1  0
 30 31  2  0
 31 32  1  0
 32 33  2  0
 33 34  1  0
 34 35  2  0
 35 36  1  0
 31 37  1  0
 26 38  1  0
 38 39  1  0
 39 40  2  0
 40 41  1  0
 41 42  2  0
 17  4  1  0
 42 23  1  0
 14  5  1  0
 37 28  1  0
 42 38  1  0
 13  9  1  0
 36 32  1  0
  3 43  1  0
 10 44  1  0
 11 45  1  0
 12 46  1  0
 14 47  1  0
 15 48  1  0
 15 49  1  0
 16 50  1  0
 16 51  1  0
 17 52  1  0
 17 53  1  0
 19 54  1  0
 21 55  1  0
 22 56  1  0
 22 57  1  0
 24 58  1  0
 25 59  1  0
 33 60  1  0
 34 61  1  0
 35 62  1  0
 36 63  1  0
 39 64  1  0
M  END
>  <Energy>  (395) 
124.63175393840072

>  <compound_id>  (395) 
2595

>  <target_id>  (395) 
1

>  <reference_id>  (395) 
132

>  <inspiration_ids>  (395) 
[175, 132]

>  <energy_score>  (395) 
-33.315420836493786

>  <distance_score>  (395) 
4.9898596365368855

>  <path>  (395) 
/opt/xchem-fragalysis-2/maxwin/BulkDock/SCRATCH/505736/C2595-P132/C2595-P132.minimised.mol

>  <scratch_subdir>  (395) 
/opt/xchem-fragalysis-2/maxwin/BulkDock/SCRATCH/505736/C2595-P132

>  <fragmenstein_runtime>  (395) 
11.792587518692017

>  <fragmenstein_outcome>  (395) 
too moved

>  <fragmenstein_mode>  (395) 
expansion

>  <fragmenstein_error>  (395) 


$$$$
C2595-P175
     RDKit          3D

 64 70  0  0  0  0  0  0  0  0999 V2000
    2.8787   -6.6082   26.8165 O   0  0  0  0  0  0  0  0  0  0  0  0
    3.5644   -5.6681   26.8138 C   0  0  0  0  0  0  0  0  0  0  0  0
    5.0943   -5.5465   26.6462 N   0  0  0  0  0  0  0  0  0  0  0  0
    6.0700   -6.5336   26.3572 C   0  0  0  0  0  0  0  0  0  0  0  0
    6.5919   -7.0964   27.6884 C   0  0  0  0  0  0  0  0  0  0  0  0
    6.4422   -6.4993   28.8527 N   0  0  0  0  0  0  0  0  0  0  0  0
    7.0979   -7.2492   29.7892 N   0  0  0  0  0  0  0  0  0  0  0  0
    7.6026   -8.3003   29.1803 C   0  0  0  0  0  0  0  0  0  0  0  0
    8.3528   -9.3390   29.7948 C   0  0  0  0  0  0  0  0  0  0  0  0
    8.7299   -9.4137   31.1187 C   0  0  0  0  0  0  0  0  0  0  0  0
    9.4801  -10.5913   31.3997 C   0  0  0  0  0  0  0  0  0  0  0  0
    9.6459  -11.3759   30.2808 C   0  0  0  0  0  0  0  0  0  0  0  0
    8.9032  -10.6881   28.9069 S   0  0  0  0  0  0  0  0  0  0  0  0
    7.3006   -8.2411   27.8522 N   0  0  0  0  0  0  0  0  0  0  0  0
    7.1391   -5.9726   25.4285 C   0  0  0  0  0  0  0  0  0  0  0  0
    6.9479   -7.1782   24.5257 C   0  0  0  0  0  0  0  0  0  0  0  0
    5.6556   -7.5280   25.2675 C   0  0  0  0  0  0  0  0  0  0  0  0
    3.1559   -4.1939   27.0901 C   0  0  0  0  0  0  0  0  0  0  0  0
    1.4680   -3.8396   27.5105 S   0  0  0  0  0  0  0  0  0  0  0  0
    3.7863   -3.3213   25.2918 Cl  0  0  0  0  0  0  0  0  0  0  0  0
    3.8956   -3.7372   28.2945 N   0  0  0  0  0  0  0  0  0  0  0  0
    3.6861   -4.6885   29.4830 C   0  0  0  0  0  0  0  0  0  0  0  0
    2.4168   -4.7147   30.4449 C   0  0  0  0  0  0  0  0  0  0  0  0
    2.3934   -3.7663   31.4157 C   0  0  0  0  0  0  0  0  0  0  0  0
    1.5374   -3.8206   32.5939 C   0  0  0  0  0  0  0  0  0  0  0  0
    0.7260   -4.8748   32.7923 C   0  0  0  0  0  0  0  0  0  0  0  0
   -0.1389   -5.0734   34.2829 S   0  0  0  0  0  0  0  0  0  0  0  0
    0.9696   -6.1902   35.0473 C   0  0  0  0  0  0  0  0  0  0  0  0
    1.8597   -6.9379   34.4187 N   0  0  0  0  0  0  0  0  0  0  0  0
    2.5642   -7.6158   35.3904 N   0  0  0  0  0  0  0  0  0  0  0  0
    2.0515   -7.2477   36.5530 C   0  0  0  0  0  0  0  0  0  0  0  0
    2.5401   -7.6933   37.8149 C   0  0  0  0  0  0  0  0  0  0  0  0
    2.0080   -7.5457   39.0801 C   0  0  0  0  0  0  0  0  0  0  0  0
    2.8920   -8.1739   39.9928 C   0  0  0  0  0  0  0  0  0  0  0  0
    3.9421   -8.6837   39.2624 C   0  0  0  0  0  0  0  0  0  0  0  0
    3.7186   -8.3874   37.9426 N   0  0  0  0  0  0  0  0  0  0  0  0
    1.0232   -6.3534   36.4035 O   0  0  0  0  0  0  0  0  0  0  0  0
    0.6362   -5.8239   31.7746 N   0  0  0  0  0  0  0  0  0  0  0  0
   -0.1549   -6.9405   31.6578 C   0  0  0  0  0  0  0  0  0  0  0  0
    0.0738   -7.5342   30.5125 N   0  0  0  0  0  0  0  0  0  0  0  0
    1.0674   -6.8224   29.8653 N   0  0  0  0  0  0  0  0  0  0  0  0
    1.4135   -5.7834   30.6046 C   0  0  0  0  0  0  0  0  0  0  0  0
    5.3756   -4.5739   26.7782 H   0  0  0  0  0  0  0  0  0  0  0  0
    8.4773   -8.6567   31.8525 H   0  0  0  0  0  0  0  0  0  0  0  0
    9.8723  -10.8534   32.3748 H   0  0  0  0  0  0  0  0  0  0  0  0
   10.1619  -12.3243   30.2082 H   0  0  0  0  0  0  0  0  0  0  0  0
    7.5737   -8.9059   27.1435 H   0  0  0  0  0  0  0  0  0  0  0  0
    6.8437   -5.0346   24.9465 H   0  0  0  0  0  0  0  0  0  0  0  0
    8.1419   -5.8652   25.8517 H   0  0  0  0  0  0  0  0  0  0  0  0
    6.8049   -6.9062   23.4806 H   0  0  0  0  0  0  0  0  0  0  0  0
    7.7331   -7.9321   24.6327 H   0  0  0  0  0  0  0  0  0  0  0  0
    4.7540   -7.2592   24.7051 H   0  0  0  0  0  0  0  0  0  0  0  0
    5.5661   -8.5766   25.5624 H   0  0  0  0  0  0  0  0  0  0  0  0
    1.1393   -5.0926   27.8644 H   0  0  0  0  0  0  0  0  0  0  0  0
    3.4944   -2.8346   28.5453 H   0  0  0  0  0  0  0  0  0  0  0  0
    4.5381   -4.4515   30.1373 H   0  0  0  0  0  0  0  0  0  0  0  0
    3.8837   -5.7262   29.1950 H   0  0  0  0  0  0  0  0  0  0  0  0
    3.1374   -2.9703   31.4209 H   0  0  0  0  0  0  0  0  0  0  0  0
    1.6648   -3.0378   33.3376 H   0  0  0  0  0  0  0  0  0  0  0  0
    1.0760   -7.0492   39.3208 H   0  0  0  0  0  0  0  0  0  0  0  0
    2.7710   -8.2456   41.0662 H   0  0  0  0  0  0  0  0  0  0  0  0
    4.8250   -9.2296   39.5663 H   0  0  0  0  0  0  0  0  0  0  0  0
    4.3246   -8.6360   37.1709 H   0  0  0  0  0  0  0  0  0  0  0  0
   -0.8638   -7.2647   32.4071 H   0  0  0  0  0  0  0  0  0  0  0  0
  1  2  2  0
  2  3  1  0
  3  4  1  0
  4  5  1  0
  5  6  2  0
  6  7  1  0
  7  8  2  0
  8  9  1  0
  9 10  2  0
 10 11  1  0
 11 12  2  0
 12 13  1  0
  8 14  1  0
  4 15  1  0
 15 16  1  0
 16 17  1  0
  2 18  1  0
 18 19  1  0
 18 20  1  0
 18 21  1  0
 21 22  1  0
 22 23  1  0
 23 24  2  0
 24 25  1  0
 25 26  2  0
 26 27  1  0
 27 28  1  0
 28 29  2  0
 29 30  1  0
 30 31  2  0
 31 32  1  0
 32 33  2  0
 33 34  1  0
 34 35  2  0
 35 36  1  0
 31 37  1  0
 26 38  1  0
 38 39  1  0
 39 40  2  0
 40 41  1  0
 41 42  2  0
 17  4  1  0
 42 23  1  0
 14  5  1  0
 37 28  1  0
 42 38  1  0
 13  9  1  0
 36 32  1  0
  3 43  1  0
 10 44  1  0
 11 45  1  0
 12 46  1  0
 14 47  1  0
 15 48  1  0
 15 49  1  0
 16 50  1  0
 16 51  1  0
 17 52  1  0
 17 53  1  0
 19 54  1  0
 21 55  1  0
 22 56  1  0
 22 57  1  0
 24 58  1  0
 25 59  1  0
 33 60  1  0
 34 61  1  0
 35 62  1  0
 36 63  1  0
 39 64  1  0
M  END
>  <Energy>  (396) 
121.51351314658169

>  <compound_id>  (396) 
2595

>  <target_id>  (396) 
1

>  <reference_id>  (396) 
175

>  <inspiration_ids>  (396) 
[175, 133]

>  <energy_score>  (396) 
-36.43366162831313

>  <distance_score>  (396) 
4.897985966805484

>  <path>  (396) 
/opt/xchem-fragalysis-2/maxwin/BulkDock/SCRATCH/505736/C2595-P175/C2595-P175.minimised.mol

>  <scratch_subdir>  (396) 
/opt/xchem-fragalysis-2/maxwin/BulkDock/SCRATCH/505736/C2595-P175

>  <fragmenstein_runtime>  (396) 
10.50834608078003

>  <fragmenstein_outcome>  (396) 
too moved

>  <fragmenstein_mode>  (396) 
expansion

>  <fragmenstein_error>  (396) 


$$$$
C2595-P133
     RDKit          3D

 64 70  0  0  0  0  0  0  0  0999 V2000
    6.4905   -2.9998   27.0064 O   0  0  0  0  0  0  0  0  0  0  0  0
    5.5091   -3.4669   26.5853 C   0  0  0  0  0  0  0  0  0  0  0  0
    5.1749   -4.9334   26.2103 N   0  0  0  0  0  0  0  0  0  0  0  0
    5.9382   -6.1226   26.3646 C   0  0  0  0  0  0  0  0  0  0  0  0
    6.6738   -6.2793   27.7111 C   0  0  0  0  0  0  0  0  0  0  0  0
    6.1541   -6.0087   28.8903 N   0  0  0  0  0  0  0  0  0  0  0  0
    6.9160   -6.6672   29.8312 N   0  0  0  0  0  0  0  0  0  0  0  0
    7.8387   -7.3560   29.1934 C   0  0  0  0  0  0  0  0  0  0  0  0
    8.7420   -8.3068   29.7471 C   0  0  0  0  0  0  0  0  0  0  0  0
    8.9335   -8.5849   31.0829 C   0  0  0  0  0  0  0  0  0  0  0  0
    9.9441   -9.5648   31.2870 C   0  0  0  0  0  0  0  0  0  0  0  0
   10.4643  -10.0303   30.1000 C   0  0  0  0  0  0  0  0  0  0  0  0
    9.7457   -9.2772   28.7488 S   0  0  0  0  0  0  0  0  0  0  0  0
    7.7926   -7.0347   27.8723 N   0  0  0  0  0  0  0  0  0  0  0  0
    6.6089   -6.6540   25.1061 C   0  0  0  0  0  0  0  0  0  0  0  0
    5.6231   -7.8175   25.0946 C   0  0  0  0  0  0  0  0  0  0  0  0
    4.9031   -7.2764   26.2888 C   0  0  0  0  0  0  0  0  0  0  0  0
    4.1369   -2.8087   26.3402 C   0  0  0  0  0  0  0  0  0  0  0  0
    3.7497   -1.3327   27.2607 S   0  0  0  0  0  0  0  0  0  0  0  0
    4.2909   -2.2784   24.2516 Cl  0  0  0  0  0  0  0  0  0  0  0  0
    2.9516   -3.7940   26.7698 N   0  0  0  0  0  0  0  0  0  0  0  0
    3.1141   -4.5262   28.1383 C   0  0  0  0  0  0  0  0  0  0  0  0
    2.0164   -4.5393   29.3319 C   0  0  0  0  0  0  0  0  0  0  0  0
    2.0301   -3.4598   30.1582 C   0  0  0  0  0  0  0  0  0  0  0  0
    1.3507   -3.3861   31.4497 C   0  0  0  0  0  0  0  0  0  0  0  0
    0.6649   -4.4405   31.9244 C   0  0  0  0  0  0  0  0  0  0  0  0
   -0.0798   -4.3881   33.4907 S   0  0  0  0  0  0  0  0  0  0  0  0
    0.9579   -5.5184   34.3284 C   0  0  0  0  0  0  0  0  0  0  0  0
    1.9317   -6.2213   33.7804 N   0  0  0  0  0  0  0  0  0  0  0  0
    2.4946   -6.9753   34.7879 N   0  0  0  0  0  0  0  0  0  0  0  0
    1.8279   -6.6857   35.8916 C   0  0  0  0  0  0  0  0  0  0  0  0
    2.1405   -7.2275   37.1702 C   0  0  0  0  0  0  0  0  0  0  0  0
    1.4078   -7.2358   38.3397 C   0  0  0  0  0  0  0  0  0  0  0  0
    2.1801   -7.9027   39.3234 C   0  0  0  0  0  0  0  0  0  0  0  0
    3.3679   -8.2722   38.7329 C   0  0  0  0  0  0  0  0  0  0  0  0
    3.3315   -7.8628   37.4252 N   0  0  0  0  0  0  0  0  0  0  0  0
    0.8236   -5.7806   35.6644 O   0  0  0  0  0  0  0  0  0  0  0  0
    0.5691   -5.5628   31.1029 N   0  0  0  0  0  0  0  0  0  0  0  0
   -0.1208   -6.7395   31.2774 C   0  0  0  0  0  0  0  0  0  0  0  0
    0.0966   -7.5416   30.2664 N   0  0  0  0  0  0  0  0  0  0  0  0
    0.9864   -6.9054   29.4209 N   0  0  0  0  0  0  0  0  0  0  0  0
    1.2186   -5.6774   29.8557 C   0  0  0  0  0  0  0  0  0  0  0  0
    4.2454   -4.9751   25.7924 H   0  0  0  0  0  0  0  0  0  0  0  0
    8.3846   -8.0934   31.8776 H   0  0  0  0  0  0  0  0  0  0  0  0
   10.2587   -9.9349   32.2548 H   0  0  0  0  0  0  0  0  0  0  0  0
   11.2193  -10.7935   29.9695 H   0  0  0  0  0  0  0  0  0  0  0  0
    8.3697   -7.4387   27.1513 H   0  0  0  0  0  0  0  0  0  0  0  0
    6.5447   -6.0055   24.2324 H   0  0  0  0  0  0  0  0  0  0  0  0
    7.6528   -6.9678   25.1925 H   0  0  0  0  0  0  0  0  0  0  0  0
    4.9411   -7.8293   24.2458 H   0  0  0  0  0  0  0  0  0  0  0  0
    6.0744   -8.7922   25.2948 H   0  0  0  0  0  0  0  0  0  0  0  0
    3.8574   -7.0185   26.0815 H   0  0  0  0  0  0  0  0  0  0  0  0
    4.9020   -7.9111   27.1674 H   0  0  0  0  0  0  0  0  0  0  0  0
    4.8322   -0.6526   26.8506 H   0  0  0  0  0  0  0  0  0  0  0  0
    2.2502   -3.0841   27.0136 H   0  0  0  0  0  0  0  0  0  0  0  0
    4.0433   -4.1793   28.6063 H   0  0  0  0  0  0  0  0  0  0  0  0
    3.2645   -5.5827   27.8942 H   0  0  0  0  0  0  0  0  0  0  0  0
    2.6567   -2.5999   29.9253 H   0  0  0  0  0  0  0  0  0  0  0  0
    1.4710   -2.4670   32.0183 H   0  0  0  0  0  0  0  0  0  0  0  0
    0.4158   -6.8212   38.4705 H   0  0  0  0  0  0  0  0  0  0  0  0
    1.8944   -8.0933   40.3500 H   0  0  0  0  0  0  0  0  0  0  0  0
    4.2293   -8.7936   39.1278 H   0  0  0  0  0  0  0  0  0  0  0  0
    4.0705   -7.9931   36.7458 H   0  0  0  0  0  0  0  0  0  0  0  0
   -0.7473   -6.9557   32.1311 H   0  0  0  0  0  0  0  0  0  0  0  0
  1  2  2  0
  2  3  1  0
  3  4  1  0
  4  5  1  0
  5  6  2  0
  6  7  1  0
  7  8  2  0
  8  9  1  0
  9 10  2  0
 10 11  1  0
 11 12  2  0
 12 13  1  0
  8 14  1  0
  4 15  1  0
 15 16  1  0
 16 17  1  0
  2 18  1  0
 18 19  1  0
 18 20  1  0
 18 21  1  0
 21 22  1  0
 22 23  1  0
 23 24  2  0
 24 25  1  0
 25 26  2  0
 26 27  1  0
 27 28  1  0
 28 29  2  0
 29 30  1  0
 30 31  2  0
 31 32  1  0
 32 33  2  0
 33 34  1  0
 34 35  2  0
 35 36  1  0
 31 37  1  0
 26 38  1  0
 38 39  1  0
 39 40  2  0
 40 41  1  0
 41 42  2  0
 17  4  1  0
 42 23  1  0
 14  5  1  0
 37 28  1  0
 42 38  1  0
 13  9  1  0
 36 32  1  0
  3 43  1  0
 10 44  1  0
 11 45  1  0
 12 46  1  0
 14 47  1  0
 15 48  1  0
 15 49  1  0
 16 50  1  0
 16 51  1  0
 17 52  1  0
 17 53  1  0
 19 54  1  0
 21 55  1  0
 22 56  1  0
 22 57  1  0
 24 58  1  0
 25 59  1  0
 33 60  1  0
 34 61  1  0
 35 62  1  0
 36 63  1  0
 39 64  1  0
M  END
>  <Energy>  (397) 
148.0292318817892

>  <compound_id>  (397) 
2595

>  <target_id>  (397) 
1

>  <reference_id>  (397) 
133

>  <inspiration_ids>  (397) 
[175, 133]

>  <energy_score>  (397) 
-9.917942893099848

>  <distance_score>  (397) 
5.116269737506284

>  <path>  (397) 
/opt/xchem-fragalysis-2/maxwin/BulkDock/SCRATCH/505736/C2595-P133/C2595-P133.minimised.mol

>  <scratch_subdir>  (397) 
/opt/xchem-fragalysis-2/maxwin/BulkDock/SCRATCH/505736/C2595-P133

>  <fragmenstein_runtime>  (397) 
14.274658441543579

>  <fragmenstein_outcome>  (397) 
too moved

>  <fragmenstein_mode>  (397) 
expansion

>  <fragmenstein_error>  (397) 


$$$$
C2597-P175
     RDKit          3D

 75 81  0  0  0  0  0  0  0  0999 V2000
    3.1974   -6.7550   24.8637 O   0  0  0  0  0  0  0  0  0  0  0  0
    3.5845   -5.6630   25.1441 C   0  0  0  0  0  0  0  0  0  0  0  0
    4.7973   -5.2390   25.7824 N   0  0  0  0  0  0  0  0  0  0  0  0
    5.9702   -5.9943   26.1984 C   0  0  0  0  0  0  0  0  0  0  0  0
    6.3566   -5.9136   27.7035 C   0  0  0  0  0  0  0  0  0  0  0  0
    5.5836   -5.6178   28.7252 N   0  0  0  0  0  0  0  0  0  0  0  0
    6.2479   -6.0319   29.8717 N   0  0  0  0  0  0  0  0  0  0  0  0
    7.3653   -6.6277   29.5055 C   0  0  0  0  0  0  0  0  0  0  0  0
    8.2252   -7.4500   30.3008 C   0  0  0  0  0  0  0  0  0  0  0  0
    8.3386   -7.4705   31.6758 C   0  0  0  0  0  0  0  0  0  0  0  0
    9.2408   -8.4761   32.1360 C   0  0  0  0  0  0  0  0  0  0  0  0
    9.7945   -9.1899   31.0974 C   0  0  0  0  0  0  0  0  0  0  0  0
    9.2377   -8.6410   29.5793 S   0  0  0  0  0  0  0  0  0  0  0  0
    7.5414   -6.4164   28.1728 N   0  0  0  0  0  0  0  0  0  0  0  0
    7.1119   -5.7646   25.2195 C   0  0  0  0  0  0  0  0  0  0  0  0
    6.7981   -7.0855   24.5379 C   0  0  0  0  0  0  0  0  0  0  0  0
    5.9830   -7.4997   25.7547 C   0  0  0  0  0  0  0  0  0  0  0  0
    2.5163   -4.2258   24.8833 C   0  0  0  0  0  0  0  0  0  0  0  0
    1.7152   -3.4471   22.7115 S   0  0  0  0  0  0  0  0  0  0  0  0
    0.6327   -5.1822   23.6858 Cl  0  0  0  0  0  0  0  0  0  0  0  0
    1.7990   -4.4525   26.2679 N   0  0  0  0  0  0  0  0  0  0  0  0
    2.3897   -3.9748   27.5198 C   0  0  0  0  0  0  0  0  0  0  0  0
    2.5048   -2.4894   27.6306 C   0  0  0  0  0  0  0  0  0  0  0  0
    1.6084   -1.7524   28.3155 C   0  0  0  0  0  0  0  0  0  0  0  0
    1.6806   -0.2998   28.3652 C   0  0  0  0  0  0  0  0  0  0  0  0
    2.6775    0.3735   27.7511 C   0  0  0  0  0  0  0  0  0  0  0  0
    2.5876    1.8267   27.6119 N   0  0  0  0  0  0  0  0  0  0  0  0
    3.4732    2.5491   26.6487 C   0  0  0  0  0  0  0  0  0  0  0  0
    3.0158    3.9590   26.2817 C   0  0  0  0  0  0  0  0  0  0  0  0
    1.5136    4.0170   26.0965 C   0  0  0  0  0  0  0  0  0  0  0  0
    0.7297    3.7982   27.4028 C   0  0  0  0  0  0  0  0  0  0  0  0
   -0.6310    3.2146   27.0507 C   0  0  0  0  0  0  0  0  0  0  0  0
   -0.9397    1.8505   27.0495 C   0  0  0  0  0  0  0  0  0  0  0  0
   -2.1893    1.3771   26.6509 C   0  0  0  0  0  0  0  0  0  0  0  0
   -3.1414    2.2645   26.1798 C   0  0  0  0  0  0  0  0  0  0  0  0
   -2.8318    3.6127   26.0888 C   0  0  0  0  0  0  0  0  0  0  0  0
   -1.6051    4.0909   26.5476 C   0  0  0  0  0  0  0  0  0  0  0  0
    1.6783    2.8570   28.6407 S   0  0  0  0  0  0  0  0  0  0  0  0
    0.7886    2.1352   29.5228 O   0  0  0  0  0  0  0  0  0  0  0  0
    2.6512    3.7546   29.2398 O   0  0  0  0  0  0  0  0  0  0  0  0
    3.6809   -0.4268   27.1436 N   0  0  0  0  0  0  0  0  0  0  0  0
    4.8966   -0.1665   26.5612 C   0  0  0  0  0  0  0  0  0  0  0  0
    5.4300   -1.2583   26.0566 N   0  0  0  0  0  0  0  0  0  0  0  0
    4.5992   -2.2957   26.3422 N   0  0  0  0  0  0  0  0  0  0  0  0
    3.5996   -1.8087   27.0454 C   0  0  0  0  0  0  0  0  0  0  0  0
    4.7562   -4.2296   25.9376 H   0  0  0  0  0  0  0  0  0  0  0  0
    7.7832   -6.8041   32.3259 H   0  0  0  0  0  0  0  0  0  0  0  0
    9.4653   -8.6693   33.1782 H   0  0  0  0  0  0  0  0  0  0  0  0
   10.5004  -10.0075   31.1587 H   0  0  0  0  0  0  0  0  0  0  0  0
    8.2920   -6.7986   27.6181 H   0  0  0  0  0  0  0  0  0  0  0  0
    6.9198   -4.9117   24.5677 H   0  0  0  0  0  0  0  0  0  0  0  0
    8.1133   -5.7231   25.6537 H   0  0  0  0  0  0  0  0  0  0  0  0
    7.6628   -7.7215   24.3549 H   0  0  0  0  0  0  0  0  0  0  0  0
    6.2122   -6.9470   23.6275 H   0  0  0  0  0  0  0  0  0  0  0  0
    5.0368   -7.9983   25.5415 H   0  0  0  0  0  0  0  0  0  0  0  0
    6.5420   -8.1818   26.4090 H   0  0  0  0  0  0  0  0  0  0  0  0
    2.6191   -2.4847   22.7018 H   0  0  0  0  0  0  0  0  0  0  0  0
    1.6856   -5.4619   26.3940 H   0  0  0  0  0  0  0  0  0  0  0  0
    1.7467   -4.3342   28.3339 H   0  0  0  0  0  0  0  0  0  0  0  0
    3.3540   -4.4481   27.7165 H   0  0  0  0  0  0  0  0  0  0  0  0
    0.7434   -2.2154   28.7863 H   0  0  0  0  0  0  0  0  0  0  0  0
    0.8255    0.1255   28.8641 H   0  0  0  0  0  0  0  0  0  0  0  0
    4.4830    2.6177   27.0640 H   0  0  0  0  0  0  0  0  0  0  0  0
    3.4958    1.9783   25.7135 H   0  0  0  0  0  0  0  0  0  0  0  0
    3.3359    4.6883   27.0339 H   0  0  0  0  0  0  0  0  0  0  0  0
    3.5140    4.2580   25.3513 H   0  0  0  0  0  0  0  0  0  0  0  0
    1.2336    4.9891   25.6705 H   0  0  0  0  0  0  0  0  0  0  0  0
    1.2334    3.2710   25.3395 H   0  0  0  0  0  0  0  0  0  0  0  0
    0.5732    4.7671   27.8972 H   0  0  0  0  0  0  0  0  0  0  0  0
   -0.2178    1.1052   27.3373 H   0  0  0  0  0  0  0  0  0  0  0  0
   -2.3990    0.3099   26.6857 H   0  0  0  0  0  0  0  0  0  0  0  0
   -4.1200    1.9139   25.8715 H   0  0  0  0  0  0  0  0  0  0  0  0
   -3.5540    4.3008   25.6633 H   0  0  0  0  0  0  0  0  0  0  0  0
   -1.4153    5.1614   26.4835 H   0  0  0  0  0  0  0  0  0  0  0  0
    5.3717    0.7975   26.5368 H   0  0  0  0  0  0  0  0  0  0  0  0
  1  2  2  0
  2  3  1  0
  3  4  1  0
  4  5  1  0
  5  6  2  0
  6  7  1  0
  7  8  2  0
  8  9  1  0
  9 10  2  0
 10 11  1  0
 11 12  2  0
 12 13  1  0
  8 14  1  0
  4 15  1  0
 15 16  1  0
 16 17  1  0
  2 18  1  0
 18 19  1  0
 18 20  1  0
 18 21  1  0
 21 22  1  0
 22 23  1  0
 23 24  2  0
 24 25  1  0
 25 26  2  0
 26 27  1  0
 27 28  1  0
 28 29  1  0
 29 30  1  0
 30 31  1  0
 31 32  1  0
 32 33  2  0
 33 34  1  0
 34 35  2  0
 35 36  1  0
 36 37  2  0
 31 38  1  0
 38 39  2  0
 38 40  2  0
 26 41  1  0
 41 42  1  0
 42 43  2  0
 43 44  1  0
 44 45  2  0
 17  4  1  0
 45 23  1  0
 14  5  1  0
 38 27  1  0
 45 41  1  0
 13  9  1  0
 37 32  1  0
  3 46  1  0
 10 47  1  0
 11 48  1  0
 12 49  1  0
 14 50  1  0
 15 51  1  0
 15 52  1  0
 16 53  1  0
 16 54  1  0
 17 55  1  0
 17 56  1  0
 19 57  1  0
 21 58  1  0
 22 59  1  0
 22 60  1  0
 24 61  1  0
 25 62  1  0
 28 63  1  0
 28 64  1  0
 29 65  1  0
 29 66  1  0
 30 67  1  0
 30 68  1  0
 31 69  1  0
 33 70  1  0
 34 71  1  0
 35 72  1  0
 36 73  1  0
 37 74  1  0
 42 75  1  0
M  END
>  <Energy>  (398) 
326.83584360024753

>  <compound_id>  (398) 
2597

>  <target_id>  (398) 
1

>  <reference_id>  (398) 
175

>  <inspiration_ids>  (398) 
[175, 135]

>  <energy_score>  (398) 
100.39776391636781

>  <distance_score>  (398) 
5.323463915750956

>  <path>  (398) 
/opt/xchem-fragalysis-2/maxwin/BulkDock/SCRATCH/505736/C2597-P175/C2597-P175.minimised.mol

>  <scratch_subdir>  (398) 
/opt/xchem-fragalysis-2/maxwin/BulkDock/SCRATCH/505736/C2597-P175

>  <fragmenstein_runtime>  (398) 
21.49662137031555

>  <fragmenstein_outcome>  (398) 
too moved

>  <fragmenstein_mode>  (398) 
expansion

>  <fragmenstein_error>  (398) 


$$$$
C2597-P135
     RDKit          3D

 75 81  0  0  0  0  0  0  0  0999 V2000
    3.7138   -3.9366   25.3588 O   0  0  0  0  0  0  0  0  0  0  0  0
    3.4311   -5.0896   25.5212 C   0  0  0  0  0  0  0  0  0  0  0  0
    4.2832   -6.2564   25.8915 N   0  0  0  0  0  0  0  0  0  0  0  0
    5.6952   -6.3284   26.2637 C   0  0  0  0  0  0  0  0  0  0  0  0
    6.1387   -7.6618   26.9131 C   0  0  0  0  0  0  0  0  0  0  0  0
    5.9544   -7.8653   28.1997 N   0  0  0  0  0  0  0  0  0  0  0  0
    7.0041   -8.6221   28.6435 N   0  0  0  0  0  0  0  0  0  0  0  0
    7.7640   -8.9112   27.6092 C   0  0  0  0  0  0  0  0  0  0  0  0
    9.0762   -9.4654   27.6585 C   0  0  0  0  0  0  0  0  0  0  0  0
    9.6685  -10.3305   26.7620 C   0  0  0  0  0  0  0  0  0  0  0  0
   11.0009  -10.6735   27.1414 C   0  0  0  0  0  0  0  0  0  0  0  0
   11.3858  -10.0474   28.3046 C   0  0  0  0  0  0  0  0  0  0  0  0
   10.1497   -9.0498   28.9294 S   0  0  0  0  0  0  0  0  0  0  0  0
    7.1359   -8.4865   26.4664 N   0  0  0  0  0  0  0  0  0  0  0  0
    6.1151   -5.2661   27.3161 C   0  0  0  0  0  0  0  0  0  0  0  0
    6.5983   -4.4013   26.1785 C   0  0  0  0  0  0  0  0  0  0  0  0
    6.6894   -5.7017   25.3282 C   0  0  0  0  0  0  0  0  0  0  0  0
    1.9819   -5.6231   25.4818 C   0  0  0  0  0  0  0  0  0  0  0  0
    0.4283   -4.7681   23.8299 S   0  0  0  0  0  0  0  0  0  0  0  0
    0.6116   -5.6838   23.5569 Cl  0  0  0  0  0  0  0  0  0  0  0  0
    1.5744   -4.8563   26.8510 N   0  0  0  0  0  0  0  0  0  0  0  0
    2.4371   -4.9038   28.0980 C   0  0  0  0  0  0  0  0  0  0  0  0
    2.8265   -3.5061   28.5849 C   0  0  0  0  0  0  0  0  0  0  0  0
    1.8652   -2.7260   29.1396 C   0  0  0  0  0  0  0  0  0  0  0  0
    1.8147   -1.2978   28.7484 C   0  0  0  0  0  0  0  0  0  0  0  0
    2.4382   -1.0254   27.5744 C   0  0  0  0  0  0  0  0  0  0  0  0
    1.6860   -0.4608   26.4622 N   0  0  0  0  0  0  0  0  0  0  0  0
    2.2797   -0.7428   24.5865 C   0  0  0  0  0  0  0  0  0  0  0  0
    0.9161   -1.7955   23.2359 C   0  0  0  0  0  0  0  0  0  0  0  0
   -1.1402   -1.4765   23.4521 C   0  0  0  0  0  0  0  0  0  0  0  0
   -1.7682   -0.3722   25.2475 C   0  0  0  0  0  0  0  0  0  0  0  0
   -2.1402    1.3776   25.4235 C   0  0  0  0  0  0  0  0  0  0  0  0
   -2.5593    1.8659   26.6546 C   0  0  0  0  0  0  0  0  0  0  0  0
   -2.4855    3.2379   26.9169 C   0  0  0  0  0  0  0  0  0  0  0  0
   -2.1075    4.1521   25.9388 C   0  0  0  0  0  0  0  0  0  0  0  0
   -1.8333    3.7161   24.6620 C   0  0  0  0  0  0  0  0  0  0  0  0
   -1.8370    2.3510   24.4046 C   0  0  0  0  0  0  0  0  0  0  0  0
   -0.3365   -0.3637   26.9921 S   0  0  0  0  0  0  0  0  0  0  0  0
   -0.6531   -1.5372   27.8020 O   0  0  0  0  0  0  0  0  0  0  0  0
   -0.3143    0.9020   27.7105 O   0  0  0  0  0  0  0  0  0  0  0  0
    3.6712   -1.6261   27.4384 N   0  0  0  0  0  0  0  0  0  0  0  0
    4.8557   -1.1844   26.9413 C   0  0  0  0  0  0  0  0  0  0  0  0
    5.8376   -1.8013   27.5642 N   0  0  0  0  0  0  0  0  0  0  0  0
    5.2708   -2.7693   28.3761 N   0  0  0  0  0  0  0  0  0  0  0  0
    3.9740   -2.7524   28.1631 C   0  0  0  0  0  0  0  0  0  0  0  0
    3.7257   -7.1000   25.8595 H   0  0  0  0  0  0  0  0  0  0  0  0
    9.1669  -10.7379   25.8925 H   0  0  0  0  0  0  0  0  0  0  0  0
   11.6403  -11.3556   26.5939 H   0  0  0  0  0  0  0  0  0  0  0  0
   12.3333  -10.1272   28.8202 H   0  0  0  0  0  0  0  0  0  0  0  0
    7.5311   -8.4836   25.5399 H   0  0  0  0  0  0  0  0  0  0  0  0
    5.3148   -4.9500   27.9686 H   0  0  0  0  0  0  0  0  0  0  0  0
    6.9543   -5.5326   27.9769 H   0  0  0  0  0  0  0  0  0  0  0  0
    7.5160   -3.8740   26.4537 H   0  0  0  0  0  0  0  0  0  0  0  0
    5.9042   -3.6695   25.7755 H   0  0  0  0  0  0  0  0  0  0  0  0
    7.6729   -6.1829   25.3680 H   0  0  0  0  0  0  0  0  0  0  0  0
    6.3879   -5.6288   24.2855 H   0  0  0  0  0  0  0  0  0  0  0  0
    1.1517   -4.3502   22.7425 H   0  0  0  0  0  0  0  0  0  0  0  0
    0.6667   -5.1921   27.1820 H   0  0  0  0  0  0  0  0  0  0  0  0
    1.8364   -5.3754   28.8888 H   0  0  0  0  0  0  0  0  0  0  0  0
    3.2944   -5.5663   28.0094 H   0  0  0  0  0  0  0  0  0  0  0  0
    0.9068   -3.1335   29.4553 H   0  0  0  0  0  0  0  0  0  0  0  0
    0.9515   -0.7819   29.1445 H   0  0  0  0  0  0  0  0  0  0  0  0
    2.6686    0.3475   24.6969 H   0  0  0  0  0  0  0  0  0  0  0  0
    3.3348   -1.2237   24.6004 H   0  0  0  0  0  0  0  0  0  0  0  0
    0.7486   -2.4367   22.3531 H   0  0  0  0  0  0  0  0  0  0  0  0
    1.5138   -2.7283   23.3550 H   0  0  0  0  0  0  0  0  0  0  0  0
   -1.9146   -1.6650   22.6393 H   0  0  0  0  0  0  0  0  0  0  0  0
   -1.4178   -2.5520   23.4965 H   0  0  0  0  0  0  0  0  0  0  0  0
   -2.6156   -0.9087   25.7368 H   0  0  0  0  0  0  0  0  0  0  0  0
   -2.7813    1.2050   27.4772 H   0  0  0  0  0  0  0  0  0  0  0  0
   -2.6680    3.6087   27.9195 H   0  0  0  0  0  0  0  0  0  0  0  0
   -2.0306    5.2079   26.1785 H   0  0  0  0  0  0  0  0  0  0  0  0
   -1.5724    4.4302   23.8862 H   0  0  0  0  0  0  0  0  0  0  0  0
   -1.5448    2.0963   23.3901 H   0  0  0  0  0  0  0  0  0  0  0  0
    4.9415   -0.3869   26.2283 H   0  0  0  0  0  0  0  0  0  0  0  0
  1  2  2  0
  2  3  1  0
  3  4  1  0
  4  5  1  0
  5  6  2  0
  6  7  1  0
  7  8  2  0
  8  9  1  0
  9 10  2  0
 10 11  1  0
 11 12  2  0
 12 13  1  0
  8 14  1  0
  4 15  1  0
 15 16  1  0
 16 17  1  0
  2 18  1  0
 18 19  1  0
 18 20  1  0
 18 21  1  0
 21 22  1  0
 22 23  1  0
 23 24  2  0
 24 25  1  0
 25 26  2  0
 26 27  1  0
 27 28  1  0
 28 29  1  0
 29 30  1  0
 30 31  1  0
 31 32  1  0
 32 33  2  0
 33 34  1  0
 34 35  2  0
 35 36  1  0
 36 37  2  0
 31 38  1  0
 38 39  2  0
 38 40  2  0
 26 41  1  0
 41 42  1  0
 42 43  2  0
 43 44  1  0
 44 45  2  0
 17  4  1  0
 45 23  1  0
 14  5  1  0
 38 27  1  0
 45 41  1  0
 13  9  1  0
 37 32  1  0
  3 46  1  0
 10 47  1  0
 11 48  1  0
 12 49  1  0
 14 50  1  0
 15 51  1  0
 15 52  1  0
 16 53  1  0
 16 54  1  0
 17 55  1  0
 17 56  1  0
 19 57  1  0
 21 58  1  0
 22 59  1  0
 22 60  1  0
 24 61  1  0
 25 62  1  0
 28 63  1  0
 28 64  1  0
 29 65  1  0
 29 66  1  0
 30 67  1  0
 30 68  1  0
 31 69  1  0
 33 70  1  0
 34 71  1  0
 35 72  1  0
 36 73  1  0
 37 74  1  0
 42 75  1  0
M  END
>  <Energy>  (399) 
1145.9878558726584

>  <compound_id>  (399) 
2597

>  <target_id>  (399) 
1

>  <reference_id>  (399) 
135

>  <inspiration_ids>  (399) 
[175, 135]

>  <energy_score>  (399) 
919.5497761887691

>  <distance_score>  (399) 
5.628289864552352

>  <path>  (399) 
/opt/xchem-fragalysis-2/maxwin/BulkDock/SCRATCH/505736/C2597-P135/C2597-P135.minimised.mol

>  <scratch_subdir>  (399) 
/opt/xchem-fragalysis-2/maxwin/BulkDock/SCRATCH/505736/C2597-P135

>  <fragmenstein_runtime>  (399) 
25.66336417198181

>  <fragmenstein_outcome>  (399) 
too moved

>  <fragmenstein_mode>  (399) 
expansion

>  <fragmenstein_error>  (399) 


$$$$
C2597-P175
     RDKit          3D

 75 81  0  0  0  0  0  0  0  0999 V2000
    5.8428   -7.8380   26.9307 O   0  0  0  0  0  0  0  0  0  0  0  0
    6.0125   -6.8994   26.2546 C   0  0  0  0  0  0  0  0  0  0  0  0
    7.1630   -5.8560   26.2521 N   0  0  0  0  0  0  0  0  0  0  0  0
    8.2704   -5.7029   27.1277 C   0  0  0  0  0  0  0  0  0  0  0  0
    7.9763   -6.5033   28.4018 C   0  0  0  0  0  0  0  0  0  0  0  0
    7.3841   -6.0957   29.4997 N   0  0  0  0  0  0  0  0  0  0  0  0
    7.4163   -7.1594   30.3792 N   0  0  0  0  0  0  0  0  0  0  0  0
    7.9468   -8.1894   29.7512 C   0  0  0  0  0  0  0  0  0  0  0  0
    8.3548   -9.4406   30.2853 C   0  0  0  0  0  0  0  0  0  0  0  0
    8.4121   -9.7987   31.6123 C   0  0  0  0  0  0  0  0  0  0  0  0
    9.0019  -11.0824   31.7941 C   0  0  0  0  0  0  0  0  0  0  0  0
    9.3547  -11.6691   30.5995 C   0  0  0  0  0  0  0  0  0  0  0  0
    8.9539  -10.6852   29.2669 S   0  0  0  0  0  0  0  0  0  0  0  0
    8.1913   -7.8408   28.4680 N   0  0  0  0  0  0  0  0  0  0  0  0
    8.7019   -4.2524   27.3100 C   0  0  0  0  0  0  0  0  0  0  0  0
   10.1085   -4.6530   26.8478 C   0  0  0  0  0  0  0  0  0  0  0  0
    9.6019   -6.0441   26.4683 C   0  0  0  0  0  0  0  0  0  0  0  0
    5.0145   -6.3884   25.2066 C   0  0  0  0  0  0  0  0  0  0  0  0
    5.9539   -6.4870   23.5457 S   0  0  0  0  0  0  0  0  0  0  0  0
    3.6081   -7.4685   25.3081 Cl  0  0  0  0  0  0  0  0  0  0  0  0
    4.5344   -5.0121   25.5190 N   0  0  0  0  0  0  0  0  0  0  0  0
    4.5274   -4.4925   26.9024 C   0  0  0  0  0  0  0  0  0  0  0  0
    3.2672   -4.6287   27.7556 C   0  0  0  0  0  0  0  0  0  0  0  0
    3.0825   -5.7449   28.4889 C   0  0  0  0  0  0  0  0  0  0  0  0
    1.9384   -5.9219   29.3652 C   0  0  0  0  0  0  0  0  0  0  0  0
    1.0148   -4.9624   29.5756 C   0  0  0  0  0  0  0  0  0  0  0  0
   -0.1017   -5.3334   30.4983 N   0  0  0  0  0  0  0  0  0  0  0  0
   -0.1990   -6.6937   31.1442 C   0  0  0  0  0  0  0  0  0  0  0  0
    0.8005   -6.8587   32.3032 C   0  0  0  0  0  0  0  0  0  0  0  0
    1.0515   -5.7121   33.2995 C   0  0  0  0  0  0  0  0  0  0  0  0
    1.1399   -4.3688   32.5847 C   0  0  0  0  0  0  0  0  0  0  0  0
    1.5473   -3.1195   33.3106 C   0  0  0  0  0  0  0  0  0  0  0  0
    1.7331   -3.0750   34.6923 C   0  0  0  0  0  0  0  0  0  0  0  0
    2.2298   -1.9174   35.2947 C   0  0  0  0  0  0  0  0  0  0  0  0
    2.5340   -0.7914   34.5305 C   0  0  0  0  0  0  0  0  0  0  0  0
    2.3499   -0.8168   33.1555 C   0  0  0  0  0  0  0  0  0  0  0  0
    1.8748   -1.9751   32.5510 C   0  0  0  0  0  0  0  0  0  0  0  0
   -0.4514   -4.1703   31.7674 S   0  0  0  0  0  0  0  0  0  0  0  0
   -0.6282   -2.8668   31.1829 O   0  0  0  0  0  0  0  0  0  0  0  0
   -1.4913   -4.7679   32.5881 O   0  0  0  0  0  0  0  0  0  0  0  0
    1.2075   -3.7735   28.8301 N   0  0  0  0  0  0  0  0  0  0  0  0
    0.4573   -2.6474   28.6267 C   0  0  0  0  0  0  0  0  0  0  0  0
    1.1655   -1.7316   28.0030 N   0  0  0  0  0  0  0  0  0  0  0  0
    2.3424   -2.3082   27.6039 N   0  0  0  0  0  0  0  0  0  0  0  0
    2.3280   -3.5624   27.9983 C   0  0  0  0  0  0  0  0  0  0  0  0
    7.0375   -5.2118   25.4706 H   0  0  0  0  0  0  0  0  0  0  0  0
    8.0820   -9.1549   32.4194 H   0  0  0  0  0  0  0  0  0  0  0  0
    9.1607  -11.5537   32.7566 H   0  0  0  0  0  0  0  0  0  0  0  0
    9.8110  -12.6390   30.4491 H   0  0  0  0  0  0  0  0  0  0  0  0
    8.5682   -8.4373   27.7475 H   0  0  0  0  0  0  0  0  0  0  0  0
    8.2051   -3.5216   26.6630 H   0  0  0  0  0  0  0  0  0  0  0  0
    8.6655   -3.8621   28.3330 H   0  0  0  0  0  0  0  0  0  0  0  0
   10.8396   -4.6692   27.6652 H   0  0  0  0  0  0  0  0  0  0  0  0
   10.5328   -4.0603   26.0338 H   0  0  0  0  0  0  0  0  0  0  0  0
    9.5618   -6.2375   25.4003 H   0  0  0  0  0  0  0  0  0  0  0  0
   10.1927   -6.8514   26.9152 H   0  0  0  0  0  0  0  0  0  0  0  0
    5.4668   -7.7043   23.2666 H   0  0  0  0  0  0  0  0  0  0  0  0
    5.1178   -4.3885   24.9663 H   0  0  0  0  0  0  0  0  0  0  0  0
    5.3794   -4.8285   27.4978 H   0  0  0  0  0  0  0  0  0  0  0  0
    4.7119   -3.4128   26.8066 H   0  0  0  0  0  0  0  0  0  0  0  0
    3.8027   -6.5563   28.4330 H   0  0  0  0  0  0  0  0  0  0  0  0
    1.8125   -6.9110   29.7442 H   0  0  0  0  0  0  0  0  0  0  0  0
   -1.2227   -6.8515   31.5036 H   0  0  0  0  0  0  0  0  0  0  0  0
   -0.0676   -7.4858   30.3987 H   0  0  0  0  0  0  0  0  0  0  0  0
    1.7770   -7.0321   31.8679 H   0  0  0  0  0  0  0  0  0  0  0  0
    0.5297   -7.7549   32.8693 H   0  0  0  0  0  0  0  0  0  0  0  0
    1.9856   -5.9172   33.8382 H   0  0  0  0  0  0  0  0  0  0  0  0
    0.2625   -5.7093   34.0616 H   0  0  0  0  0  0  0  0  0  0  0  0
    1.9177   -4.4680   31.8215 H   0  0  0  0  0  0  0  0  0  0  0  0
    1.5047   -3.9289   35.3250 H   0  0  0  0  0  0  0  0  0  0  0  0
    2.3708   -1.8882   36.3728 H   0  0  0  0  0  0  0  0  0  0  0  0
    2.9093    0.1076   35.0124 H   0  0  0  0  0  0  0  0  0  0  0  0
    2.5833    0.0571   32.5527 H   0  0  0  0  0  0  0  0  0  0  0  0
    1.7706   -1.9674   31.4665 H   0  0  0  0  0  0  0  0  0  0  0  0
   -0.5708   -2.5338   28.9361 H   0  0  0  0  0  0  0  0  0  0  0  0
  1  2  2  0
  2  3  1  0
  3  4  1  0
  4  5  1  0
  5  6  2  0
  6  7  1  0
  7  8  2  0
  8  9  1  0
  9 10  2  0
 10 11  1  0
 11 12  2  0
 12 13  1  0
  8 14  1  0
  4 15  1  0
 15 16  1  0
 16 17  1  0
  2 18  1  0
 18 19  1  0
 18 20  1  0
 18 21  1  0
 21 22  1  0
 22 23  1  0
 23 24  2  0
 24 25  1  0
 25 26  2  0
 26 27  1  0
 27 28  1  0
 28 29  1  0
 29 30  1  0
 30 31  1  0
 31 32  1  0
 32 33  2  0
 33 34  1  0
 34 35  2  0
 35 36  1  0
 36 37  2  0
 31 38  1  0
 38 39  2  0
 38 40  2  0
 26 41  1  0
 41 42  1  0
 42 43  2  0
 43 44  1  0
 44 45  2  0
 17  4  1  0
 45 23  1  0
 14  5  1  0
 38 27  1  0
 45 41  1  0
 13  9  1  0
 37 32  1  0
  3 46  1  0
 10 47  1  0
 11 48  1  0
 12 49  1  0
 14 50  1  0
 15 51  1  0
 15 52  1  0
 16 53  1  0
 16 54  1  0
 17 55  1  0
 17 56  1  0
 19 57  1  0
 21 58  1  0
 22 59  1  0
 22 60  1  0
 24 61  1  0
 25 62  1  0
 28 63  1  0
 28 64  1  0
 29 65  1  0
 29 66  1  0
 30 67  1  0
 30 68  1  0
 31 69  1  0
 33 70  1  0
 34 71  1  0
 35 72  1  0
 36 73  1  0
 37 74  1  0
 42 75  1  0
M  END
>  <Energy>  (400) 
157.0501699658837

>  <compound_id>  (400) 
2597

>  <target_id>  (400) 
1

>  <reference_id>  (400) 
175

>  <inspiration_ids>  (400) 
[175, 136]

>  <energy_score>  (400) 
-43.08798782957274

>  <distance_score>  (400) 
4.837971787537193

>  <path>  (400) 
/opt/xchem-fragalysis-2/maxwin/BulkDock/SCRATCH/505736/C2597-P175/C2597-P175.minimised.mol

>  <scratch_subdir>  (400) 
/opt/xchem-fragalysis-2/maxwin/BulkDock/SCRATCH/505736/C2597-P175

>  <fragmenstein_runtime>  (400) 
30.750904083251953

>  <fragmenstein_outcome>  (400) 
too moved

>  <fragmenstein_mode>  (400) 
expansion

>  <fragmenstein_error>  (400) 


$$$$
C2597-P136
     RDKit          3D

 75 81  0  0  0  0  0  0  0  0999 V2000
    5.8759   -4.6663   25.1011 O   0  0  0  0  0  0  0  0  0  0  0  0
    5.6077   -3.8866   25.9160 C   0  0  0  0  0  0  0  0  0  0  0  0
    6.3116   -3.5398   27.2176 N   0  0  0  0  0  0  0  0  0  0  0  0
    7.4337   -4.1329   27.8422 C   0  0  0  0  0  0  0  0  0  0  0  0
    7.0742   -5.5919   28.2530 C   0  0  0  0  0  0  0  0  0  0  0  0
    6.4340   -5.8933   29.3610 N   0  0  0  0  0  0  0  0  0  0  0  0
    7.0682   -7.0066   29.8514 N   0  0  0  0  0  0  0  0  0  0  0  0
    7.9621   -7.3778   28.9553 C   0  0  0  0  0  0  0  0  0  0  0  0
    9.1225   -8.1621   29.2080 C   0  0  0  0  0  0  0  0  0  0  0  0
    9.7529   -8.3067   30.4312 C   0  0  0  0  0  0  0  0  0  0  0  0
   10.7543   -9.3210   30.4055 C   0  0  0  0  0  0  0  0  0  0  0  0
   10.8878   -9.8790   29.1530 C   0  0  0  0  0  0  0  0  0  0  0  0
    9.8367   -9.1544   28.0106 S   0  0  0  0  0  0  0  0  0  0  0  0
    7.7042   -6.7156   27.7866 N   0  0  0  0  0  0  0  0  0  0  0  0
    8.7503   -3.9763   27.0578 C   0  0  0  0  0  0  0  0  0  0  0  0
    9.4411   -3.7876   28.4032 C   0  0  0  0  0  0  0  0  0  0  0  0
    8.0781   -3.3289   28.9591 C   0  0  0  0  0  0  0  0  0  0  0  0
    4.2760   -3.0741   25.8128 C   0  0  0  0  0  0  0  0  0  0  0  0
    4.3215   -2.1113   24.0058 S   0  0  0  0  0  0  0  0  0  0  0  0
    3.9309   -1.8579   27.0564 Cl  0  0  0  0  0  0  0  0  0  0  0  0
    3.2003   -4.1044   26.1054 N   0  0  0  0  0  0  0  0  0  0  0  0
    3.4005   -4.7651   27.4435 C   0  0  0  0  0  0  0  0  0  0  0  0
    2.2107   -5.0157   28.3773 C   0  0  0  0  0  0  0  0  0  0  0  0
    1.3524   -4.0598   28.8106 C   0  0  0  0  0  0  0  0  0  0  0  0
    0.2957   -4.3233   29.8141 C   0  0  0  0  0  0  0  0  0  0  0  0
    0.1913   -5.5409   30.4033 C   0  0  0  0  0  0  0  0  0  0  0  0
   -0.6096   -5.7523   31.6384 N   0  0  0  0  0  0  0  0  0  0  0  0
   -0.3200   -6.9520   32.5159 C   0  0  0  0  0  0  0  0  0  0  0  0
    0.8538   -6.7145   33.4855 C   0  0  0  0  0  0  0  0  0  0  0  0
    1.8384   -5.5917   33.1418 C   0  0  0  0  0  0  0  0  0  0  0  0
    1.1904   -4.2331   32.8170 C   0  0  0  0  0  0  0  0  0  0  0  0
    1.6165   -2.9783   33.5168 C   0  0  0  0  0  0  0  0  0  0  0  0
    2.1264   -2.9672   34.8134 C   0  0  0  0  0  0  0  0  0  0  0  0
    2.6303   -1.7827   35.3492 C   0  0  0  0  0  0  0  0  0  0  0  0
    2.6106   -0.6013   34.6071 C   0  0  0  0  0  0  0  0  0  0  0  0
    2.0730   -0.5904   33.3267 C   0  0  0  0  0  0  0  0  0  0  0  0
    1.5778   -1.7701   32.7864 C   0  0  0  0  0  0  0  0  0  0  0  0
   -0.6126   -4.3751   32.7574 S   0  0  0  0  0  0  0  0  0  0  0  0
   -1.2415   -3.2582   32.0889 O   0  0  0  0  0  0  0  0  0  0  0  0
   -1.1000   -4.8801   34.0259 O   0  0  0  0  0  0  0  0  0  0  0  0
    0.9153   -6.5573   29.7918 N   0  0  0  0  0  0  0  0  0  0  0  0
    0.6464   -7.9034   29.7125 C   0  0  0  0  0  0  0  0  0  0  0  0
    1.4211   -8.4596   28.8049 N   0  0  0  0  0  0  0  0  0  0  0  0
    2.2695   -7.4965   28.3135 N   0  0  0  0  0  0  0  0  0  0  0  0
    1.9276   -6.3403   28.8471 C   0  0  0  0  0  0  0  0  0  0  0  0
    5.7548   -2.8611   27.7337 H   0  0  0  0  0  0  0  0  0  0  0  0
    9.4564   -7.7599   31.3197 H   0  0  0  0  0  0  0  0  0  0  0  0
   11.3408   -9.6298   31.2626 H   0  0  0  0  0  0  0  0  0  0  0  0
   11.5654  -10.6646   28.8461 H   0  0  0  0  0  0  0  0  0  0  0  0
    8.2843   -6.7590   26.9630 H   0  0  0  0  0  0  0  0  0  0  0  0
    9.1381   -4.8319   26.5040 H   0  0  0  0  0  0  0  0  0  0  0  0
    8.8064   -3.0752   26.4347 H   0  0  0  0  0  0  0  0  0  0  0  0
    9.8217   -4.7117   28.8533 H   0  0  0  0  0  0  0  0  0  0  0  0
   10.2362   -3.0374   28.4271 H   0  0  0  0  0  0  0  0  0  0  0  0
    7.9243   -2.2442   28.8892 H   0  0  0  0  0  0  0  0  0  0  0  0
    7.8720   -3.6328   29.9897 H   0  0  0  0  0  0  0  0  0  0  0  0
    3.2402   -2.7078   23.4867 H   0  0  0  0  0  0  0  0  0  0  0  0
    3.4257   -4.8475   25.4407 H   0  0  0  0  0  0  0  0  0  0  0  0
    3.8834   -5.7303   27.2350 H   0  0  0  0  0  0  0  0  0  0  0  0
    4.1167   -4.2440   28.0834 H   0  0  0  0  0  0  0  0  0  0  0  0
    1.4541   -3.0271   28.4804 H   0  0  0  0  0  0  0  0  0  0  0  0
   -0.2808   -3.4462   30.0827 H   0  0  0  0  0  0  0  0  0  0  0  0
   -1.2311   -7.1816   33.0852 H   0  0  0  0  0  0  0  0  0  0  0  0
   -0.1423   -7.8666   31.9731 H   0  0  0  0  0  0  0  0  0  0  0  0
    1.4012   -7.6413   33.6278 H   0  0  0  0  0  0  0  0  0  0  0  0
    0.4604   -6.5310   34.4938 H   0  0  0  0  0  0  0  0  0  0  0  0
    2.4282   -5.9123   32.2742 H   0  0  0  0  0  0  0  0  0  0  0  0
    2.5720   -5.5069   33.9504 H   0  0  0  0  0  0  0  0  0  0  0  0
    1.5394   -4.0236   31.8067 H   0  0  0  0  0  0  0  0  0  0  0  0
    2.1481   -3.8651   35.4255 H   0  0  0  0  0  0  0  0  0  0  0  0
    3.0334   -1.7754   36.3596 H   0  0  0  0  0  0  0  0  0  0  0  0
    2.9994    0.3167   35.0409 H   0  0  0  0  0  0  0  0  0  0  0  0
    2.0393    0.3327   32.7545 H   0  0  0  0  0  0  0  0  0  0  0  0
    1.1682   -1.7382   31.7774 H   0  0  0  0  0  0  0  0  0  0  0  0
   -0.1869   -8.4075   30.1747 H   0  0  0  0  0  0  0  0  0  0  0  0
  1  2  2  0
  2  3  1  0
  3  4  1  0
  4  5  1  0
  5  6  2  0
  6  7  1  0
  7  8  2  0
  8  9  1  0
  9 10  2  0
 10 11  1  0
 11 12  2  0
 12 13  1  0
  8 14  1  0
  4 15  1  0
 15 16  1  0
 16 17  1  0
  2 18  1  0
 18 19  1  0
 18 20  1  0
 18 21  1  0
 21 22  1  0
 22 23  1  0
 23 24  2  0
 24 25  1  0
 25 26  2  0
 26 27  1  0
 27 28  1  0
 28 29  1  0
 29 30  1  0
 30 31  1  0
 31 32  1  0
 32 33  2  0
 33 34  1  0
 34 35  2  0
 35 36  1  0
 36 37  2  0
 31 38  1  0
 38 39  2  0
 38 40  2  0
 26 41  1  0
 41 42  1  0
 42 43  2  0
 43 44  1  0
 44 45  2  0
 17  4  1  0
 45 23  1  0
 14  5  1  0
 38 27  1  0
 45 41  1  0
 13  9  1  0
 37 32  1  0
  3 46  1  0
 10 47  1  0
 11 48  1  0
 12 49  1  0
 14 50  1  0
 15 51  1  0
 15 52  1  0
 16 53  1  0
 16 54  1  0
 17 55  1  0
 17 56  1  0
 19 57  1  0
 21 58  1  0
 22 59  1  0
 22 60  1  0
 24 61  1  0
 25 62  1  0
 28 63  1  0
 28 64  1  0
 29 65  1  0
 29 66  1  0
 30 67  1  0
 30 68  1  0
 31 69  1  0
 33 70  1  0
 34 71  1  0
 35 72  1  0
 36 73  1  0
 37 74  1  0
 42 75  1  0
M  END
>  <Energy>  (401) 
196.08372503135487

>  <compound_id>  (401) 
2597

>  <target_id>  (401) 
1

>  <reference_id>  (401) 
136

>  <inspiration_ids>  (401) 
[175, 136]

>  <energy_score>  (401) 
-4.054432764099602

>  <distance_score>  (401) 
4.917696547097835

>  <path>  (401) 
/opt/xchem-fragalysis-2/maxwin/BulkDock/SCRATCH/505736/C2597-P136/C2597-P136.minimised.mol

>  <scratch_subdir>  (401) 
/opt/xchem-fragalysis-2/maxwin/BulkDock/SCRATCH/505736/C2597-P136

>  <fragmenstein_runtime>  (401) 
35.181047201156616

>  <fragmenstein_outcome>  (401) 
too moved

>  <fragmenstein_mode>  (401) 
expansion

>  <fragmenstein_error>  (401) 


$$$$
C2598-P175
     RDKit          3D

 66 67  0  0  0  0  0  0  0  0999 V2000
    6.8272   -2.4747   30.6451 C   0  0  0  0  0  0  0  0  0  0  0  0
    5.9667   -2.9377   29.4701 C   0  0  0  0  0  0  0  0  0  0  0  0
    6.4103   -4.2797   28.8441 C   0  0  0  0  0  0  0  0  0  0  0  0
    7.8943   -4.1935   28.3739 C   0  0  0  0  0  0  0  0  0  0  0  0
    8.1880   -3.0769   27.4728 N   0  0  0  0  0  0  0  0  0  0  0  0
    9.6128   -2.9611   27.2293 C   0  0  0  0  0  0  0  0  0  0  0  0
   10.1034   -4.1254   26.6061 O   0  0  0  0  0  0  0  0  0  0  0  0
    5.3914   -5.0172   27.8543 C   0  0  0  0  0  0  0  0  0  0  0  0
    5.8744   -4.9879   26.3663 C   0  0  0  0  0  0  0  0  0  0  0  0
    5.3572   -6.5660   28.2164 C   0  0  0  0  0  0  0  0  0  0  0  0
    6.5599   -7.3963   27.9912 N   0  0  0  0  0  0  0  0  0  0  0  0
    7.1762   -7.9379   29.1884 C   0  0  0  0  0  0  0  0  0  0  0  0
    7.7563   -6.8403   29.9660 N   0  0  0  0  0  0  0  0  0  0  0  0
    7.9215   -7.1620   31.3680 N   0  0  0  0  0  0  0  0  0  0  0  0
    8.2521   -8.9632   28.9375 C   0  0  0  0  0  0  0  0  0  0  0  0
    8.3876  -10.1829   29.5777 C   0  0  0  0  0  0  0  0  0  0  0  0
    9.6499  -10.7848   29.3301 C   0  0  0  0  0  0  0  0  0  0  0  0
   10.4164  -10.0314   28.4694 C   0  0  0  0  0  0  0  0  0  0  0  0
    9.5978   -8.6346   27.9265 S   0  0  0  0  0  0  0  0  0  0  0  0
    3.9375   -4.4282   27.9290 C   0  0  0  0  0  0  0  0  0  0  0  0
    2.8109   -4.6330   28.6596 C   0  0  0  0  0  0  0  0  0  0  0  0
    2.4271   -5.3889   29.8052 C   0  0  0  0  0  0  0  0  0  0  0  0
    1.5511   -6.4417   29.6401 N   0  0  0  0  0  0  0  0  0  0  0  0
    1.0445   -6.6290   30.8392 C   0  0  0  0  0  0  0  0  0  0  0  0
    1.5903   -5.8613   31.8110 O   0  0  0  0  0  0  0  0  0  0  0  0
    2.4211   -4.9986   31.1318 C   0  0  0  0  0  0  0  0  0  0  0  0
    2.9946   -3.8882   31.9244 C   0  0  0  0  0  0  0  0  0  0  0  0
    2.1228   -3.5110   33.0361 N   0  0  0  0  0  0  0  0  0  0  0  0
    3.5533   -3.5078   26.7928 C   0  0  0  0  0  0  0  0  0  0  0  0
    3.1797   -4.0721   25.7574 O   0  0  0  0  0  0  0  0  0  0  0  0
    3.5903   -1.9737   26.9055 C   0  0  0  0  0  0  0  0  0  0  0  0
    3.1182   -1.2681   28.4958 S   0  0  0  0  0  0  0  0  0  0  0  0
    5.1242   -1.3278   26.3157 Cl  0  0  0  0  0  0  0  0  0  0  0  0
    7.8319   -2.1850   30.3251 H   0  0  0  0  0  0  0  0  0  0  0  0
    6.9134   -3.2585   31.4042 H   0  0  0  0  0  0  0  0  0  0  0  0
    6.3702   -1.5982   31.1166 H   0  0  0  0  0  0  0  0  0  0  0  0
    4.9567   -3.0437   29.8654 H   0  0  0  0  0  0  0  0  0  0  0  0
    5.9687   -2.1446   28.7264 H   0  0  0  0  0  0  0  0  0  0  0  0
    6.4155   -4.9191   29.7320 H   0  0  0  0  0  0  0  0  0  0  0  0
    8.2029   -5.1297   27.9059 H   0  0  0  0  0  0  0  0  0  0  0  0
    8.5217   -4.0941   29.2690 H   0  0  0  0  0  0  0  0  0  0  0  0
    7.7487   -3.2276   26.5666 H   0  0  0  0  0  0  0  0  0  0  0  0
   10.1644   -2.7954   28.1606 H   0  0  0  0  0  0  0  0  0  0  0  0
    9.8129   -2.1032   26.5788 H   0  0  0  0  0  0  0  0  0  0  0  0
    9.6591   -4.1551   25.7309 H   0  0  0  0  0  0  0  0  0  0  0  0
    5.2114   -5.5858   25.7281 H   0  0  0  0  0  0  0  0  0  0  0  0
    5.9042   -3.9801   25.9510 H   0  0  0  0  0  0  0  0  0  0  0  0
    6.8739   -5.4024   26.2176 H   0  0  0  0  0  0  0  0  0  0  0  0
    4.5734   -7.0241   27.5977 H   0  0  0  0  0  0  0  0  0  0  0  0
    5.0017   -6.6783   29.2447 H   0  0  0  0  0  0  0  0  0  0  0  0
    7.2659   -6.9373   27.4285 H   0  0  0  0  0  0  0  0  0  0  0  0
    6.3907   -8.4512   29.7327 H   0  0  0  0  0  0  0  0  0  0  0  0
    8.6505   -6.6070   29.5205 H   0  0  0  0  0  0  0  0  0  0  0  0
    8.2711   -6.3503   31.8858 H   0  0  0  0  0  0  0  0  0  0  0  0
    8.6288   -7.8941   31.5022 H   0  0  0  0  0  0  0  0  0  0  0  0
    7.6402  -10.5825   30.2547 H   0  0  0  0  0  0  0  0  0  0  0  0
    9.9822  -11.7210   29.7625 H   0  0  0  0  0  0  0  0  0  0  0  0
   11.4130  -10.2474   28.1095 H   0  0  0  0  0  0  0  0  0  0  0  0
    1.9160   -4.1026   28.3133 H   0  0  0  0  0  0  0  0  0  0  0  0
    0.2885   -7.3385   31.1454 H   0  0  0  0  0  0  0  0  0  0  0  0
    3.9719   -4.1923   32.3142 H   0  0  0  0  0  0  0  0  0  0  0  0
    3.1435   -3.0082   31.2939 H   0  0  0  0  0  0  0  0  0  0  0  0
    1.9102   -4.3411   33.5877 H   0  0  0  0  0  0  0  0  0  0  0  0
    2.6149   -2.8649   33.6488 H   0  0  0  0  0  0  0  0  0  0  0  0
    2.8419   -1.5759   26.2290 H   0  0  0  0  0  0  0  0  0  0  0  0
    3.2633    0.0097   28.1172 H   0  0  0  0  0  0  0  0  0  0  0  0
  1  2  1  0
  2  3  1  0
  3  4  1  0
  4  5  1  0
  5  6  1  0
  6  7  1  0
  3  8  1  0
  8  9  1  0
  8 10  1  0
 10 11  1  0
 11 12  1  0
 12 13  1  0
 13 14  1  0
 12 15  1  0
 15 16  2  0
 16 17  1  0
 17 18  2  0
 18 19  1  0
  8 20  1  0
 20 21  2  3
 21 22  1  0
 22 23  1  0
 23 24  2  0
 24 25  1  0
 25 26  1  0
 26 27  1  0
 27 28  1  0
 20 29  1  0
 29 30  2  0
 29 31  1  0
 31 32  1  0
 31 33  1  0
 19 15  1  0
 26 22  2  0
  1 34  1  0
  1 35  1  0
  1 36  1  0
  2 37  1  0
  2 38  1  0
  3 39  1  0
  4 40  1  0
  4 41  1  0
  5 42  1  0
  6 43  1  0
  6 44  1  0
  7 45  1  0
  9 46  1  0
  9 47  1  0
  9 48  1  0
 10 49  1  0
 10 50  1  0
 11 51  1  0
 12 52  1  0
 13 53  1  0
 14 54  1  0
 14 55  1  0
 16 56  1  0
 17 57  1  0
 18 58  1  0
 21 59  1  0
 24 60  1  0
 27 61  1  0
 27 62  1  0
 28 63  1  0
 28 64  1  0
 31 65  1  0
 32 66  1  0
M  END
>  <Energy>  (402) 
100.46809344887254

>  <compound_id>  (402) 
2598

>  <target_id>  (402) 
1

>  <reference_id>  (402) 
175

>  <inspiration_ids>  (402) 
[175, 140]

>  <energy_score>  (402) 
-87.63080583921146

>  <distance_score>  (402) 
3.080241672623524

>  <path>  (402) 
/opt/xchem-fragalysis-2/maxwin/BulkDock/SCRATCH/505736/C2598-P175/C2598-P175.minimised.mol

>  <scratch_subdir>  (402) 
/opt/xchem-fragalysis-2/maxwin/BulkDock/SCRATCH/505736/C2598-P175

>  <fragmenstein_runtime>  (402) 
22.67995810508728

>  <fragmenstein_outcome>  (402) 
too moved

>  <fragmenstein_mode>  (402) 
expansion

>  <fragmenstein_error>  (402) 


$$$$
C2598-P140
     RDKit          3D

 66 67  0  0  0  0  0  0  0  0999 V2000
    4.4986   -2.2933   30.7964 C   0  0  0  0  0  0  0  0  0  0  0  0
    4.1780   -3.5468   29.9837 C   0  0  0  0  0  0  0  0  0  0  0  0
    4.9326   -3.6196   28.6551 C   0  0  0  0  0  0  0  0  0  0  0  0
    4.2532   -2.6190   27.6544 C   0  0  0  0  0  0  0  0  0  0  0  0
    5.1536   -1.8896   26.7526 N   0  0  0  0  0  0  0  0  0  0  0  0
    5.8731   -0.8255   27.4158 C   0  0  0  0  0  0  0  0  0  0  0  0
    7.1108   -1.3258   27.8579 O   0  0  0  0  0  0  0  0  0  0  0  0
    5.1474   -5.0776   28.0945 C   0  0  0  0  0  0  0  0  0  0  0  0
    6.1660   -4.7574   26.9504 C   0  0  0  0  0  0  0  0  0  0  0  0
    5.7773   -6.1051   29.0817 C   0  0  0  0  0  0  0  0  0  0  0  0
    6.6697   -7.1899   28.6252 N   0  0  0  0  0  0  0  0  0  0  0  0
    7.9538   -7.0587   29.3041 C   0  0  0  0  0  0  0  0  0  0  0  0
    8.5357   -5.8003   28.8366 N   0  0  0  0  0  0  0  0  0  0  0  0
    8.2197   -4.6795   29.6922 N   0  0  0  0  0  0  0  0  0  0  0  0
    8.9588   -8.1383   29.0008 C   0  0  0  0  0  0  0  0  0  0  0  0
   10.0699   -8.4274   29.7802 C   0  0  0  0  0  0  0  0  0  0  0  0
   10.9005   -9.4211   29.2035 C   0  0  0  0  0  0  0  0  0  0  0  0
   10.4358   -9.8123   27.9687 C   0  0  0  0  0  0  0  0  0  0  0  0
    8.9540   -9.0589   27.5583 S   0  0  0  0  0  0  0  0  0  0  0  0
    3.8161   -5.7669   27.7664 C   0  0  0  0  0  0  0  0  0  0  0  0
    2.6294   -6.1220   28.3786 C   0  0  0  0  0  0  0  0  0  0  0  0
    1.7114   -6.2002   29.5685 C   0  0  0  0  0  0  0  0  0  0  0  0
    0.8644   -7.3392   29.4522 N   0  0  0  0  0  0  0  0  0  0  0  0
    0.0976   -7.3521   30.5091 C   0  0  0  0  0  0  0  0  0  0  0  0
    0.3556   -6.3692   31.3637 O   0  0  0  0  0  0  0  0  0  0  0  0
    1.3957   -5.6405   30.8181 C   0  0  0  0  0  0  0  0  0  0  0  0
    1.8166   -4.5855   31.7752 C   0  0  0  0  0  0  0  0  0  0  0  0
    1.1196   -4.6688   33.0726 N   0  0  0  0  0  0  0  0  0  0  0  0
    3.8081   -6.1036   26.3019 C   0  0  0  0  0  0  0  0  0  0  0  0
    2.9832   -5.4190   25.7039 O   0  0  0  0  0  0  0  0  0  0  0  0
    4.6532   -7.2538   25.7698 C   0  0  0  0  0  0  0  0  0  0  0  0
    3.5999   -8.4872   25.0096 S   0  0  0  0  0  0  0  0  0  0  0  0
    5.9382   -6.7659   24.6839 Cl  0  0  0  0  0  0  0  0  0  0  0  0
    3.9606   -2.3144   31.7493 H   0  0  0  0  0  0  0  0  0  0  0  0
    4.2064   -1.3792   30.2731 H   0  0  0  0  0  0  0  0  0  0  0  0
    5.5691   -2.2347   31.0183 H   0  0  0  0  0  0  0  0  0  0  0  0
    4.4320   -4.4035   30.6058 H   0  0  0  0  0  0  0  0  0  0  0  0
    3.1079   -3.5639   29.7742 H   0  0  0  0  0  0  0  0  0  0  0  0
    5.9249   -3.2280   28.9069 H   0  0  0  0  0  0  0  0  0  0  0  0
    3.5523   -3.1783   27.0277 H   0  0  0  0  0  0  0  0  0  0  0  0
    3.6211   -1.8905   28.1762 H   0  0  0  0  0  0  0  0  0  0  0  0
    4.5890   -1.4663   26.0116 H   0  0  0  0  0  0  0  0  0  0  0  0
    5.3308   -0.3743   28.2526 H   0  0  0  0  0  0  0  0  0  0  0  0
    6.0826   -0.0236   26.7026 H   0  0  0  0  0  0  0  0  0  0  0  0
    7.3642   -1.9252   27.1321 H   0  0  0  0  0  0  0  0  0  0  0  0
    6.7854   -5.5895   26.6465 H   0  0  0  0  0  0  0  0  0  0  0  0
    6.9152   -4.0223   27.2593 H   0  0  0  0  0  0  0  0  0  0  0  0
    5.6797   -4.3458   26.0611 H   0  0  0  0  0  0  0  0  0  0  0  0
    4.9566   -6.6850   29.4871 H   0  0  0  0  0  0  0  0  0  0  0  0
    6.1352   -5.5960   29.9796 H   0  0  0  0  0  0  0  0  0  0  0  0
    6.9255   -7.0940   27.6489 H   0  0  0  0  0  0  0  0  0  0  0  0
    7.8115   -7.0675   30.3947 H   0  0  0  0  0  0  0  0  0  0  0  0
    9.5415   -5.9067   28.6763 H   0  0  0  0  0  0  0  0  0  0  0  0
    8.2707   -3.7998   29.1616 H   0  0  0  0  0  0  0  0  0  0  0  0
    8.9027   -4.5692   30.4472 H   0  0  0  0  0  0  0  0  0  0  0  0
   10.2734   -7.9372   30.7256 H   0  0  0  0  0  0  0  0  0  0  0  0
   11.8131   -9.8032   29.6443 H   0  0  0  0  0  0  0  0  0  0  0  0
   10.8765  -10.5318   27.2917 H   0  0  0  0  0  0  0  0  0  0  0  0
    2.1187   -6.7297   27.6384 H   0  0  0  0  0  0  0  0  0  0  0  0
   -0.6771   -8.0541   30.7747 H   0  0  0  0  0  0  0  0  0  0  0  0
    2.8793   -4.6939   31.9922 H   0  0  0  0  0  0  0  0  0  0  0  0
    1.6198   -3.5967   31.3538 H   0  0  0  0  0  0  0  0  0  0  0  0
    1.2401   -5.5987   33.4640 H   0  0  0  0  0  0  0  0  0  0  0  0
    1.5314   -4.0045   33.7245 H   0  0  0  0  0  0  0  0  0  0  0  0
    5.1445   -7.7225   26.6123 H   0  0  0  0  0  0  0  0  0  0  0  0
    4.5331   -8.8924   24.1245 H   0  0  0  0  0  0  0  0  0  0  0  0
  1  2  1  0
  2  3  1  0
  3  4  1  0
  4  5  1  0
  5  6  1  0
  6  7  1  0
  3  8  1  0
  8  9  1  0
  8 10  1  0
 10 11  1  0
 11 12  1  0
 12 13  1  0
 13 14  1  0
 12 15  1  0
 15 16  2  0
 16 17  1  0
 17 18  2  0
 18 19  1  0
  8 20  1  0
 20 21  2  3
 21 22  1  0
 22 23  1  0
 23 24  2  0
 24 25  1  0
 25 26  1  0
 26 27  1  0
 27 28  1  0
 20 29  1  0
 29 30  2  0
 29 31  1  0
 31 32  1  0
 31 33  1  0
 19 15  1  0
 26 22  2  0
  1 34  1  0
  1 35  1  0
  1 36  1  0
  2 37  1  0
  2 38  1  0
  3 39  1  0
  4 40  1  0
  4 41  1  0
  5 42  1  0
  6 43  1  0
  6 44  1  0
  7 45  1  0
  9 46  1  0
  9 47  1  0
  9 48  1  0
 10 49  1  0
 10 50  1  0
 11 51  1  0
 12 52  1  0
 13 53  1  0
 14 54  1  0
 14 55  1  0
 16 56  1  0
 17 57  1  0
 18 58  1  0
 21 59  1  0
 24 60  1  0
 27 61  1  0
 27 62  1  0
 28 63  1  0
 28 64  1  0
 31 65  1  0
 32 66  1  0
M  END
>  <Energy>  (403) 
150.07423743158205

>  <compound_id>  (403) 
2598

>  <target_id>  (403) 
1

>  <reference_id>  (403) 
140

>  <inspiration_ids>  (403) 
[175, 140]

>  <energy_score>  (403) 
-48.602728052468706

>  <distance_score>  (403) 
2.7689468880574784

>  <path>  (403) 
/opt/xchem-fragalysis-2/maxwin/BulkDock/SCRATCH/505736/C2598-P140/C2598-P140.minimised.mol

>  <scratch_subdir>  (403) 
/opt/xchem-fragalysis-2/maxwin/BulkDock/SCRATCH/505736/C2598-P140

>  <fragmenstein_runtime>  (403) 
18.70219922065735

>  <fragmenstein_outcome>  (403) 
too moved

>  <fragmenstein_mode>  (403) 
expansion

>  <fragmenstein_error>  (403) 


$$$$
C2598-P175
     RDKit          3D

 66 67  0  0  0  0  0  0  0  0999 V2000
    4.1443   -7.5664   24.8187 C   0  0  0  0  0  0  0  0  0  0  0  0
    5.3480   -6.6699   24.9674 C   0  0  0  0  0  0  0  0  0  0  0  0
    5.3017   -5.5318   26.0116 C   0  0  0  0  0  0  0  0  0  0  0  0
    4.5170   -4.2203   25.7191 C   0  0  0  0  0  0  0  0  0  0  0  0
    5.4363   -3.0900   25.6762 N   0  0  0  0  0  0  0  0  0  0  0  0
    4.7944   -1.8254   25.4147 C   0  0  0  0  0  0  0  0  0  0  0  0
    4.4433   -1.7917   24.0662 O   0  0  0  0  0  0  0  0  0  0  0  0
    4.9839   -5.9255   27.4801 C   0  0  0  0  0  0  0  0  0  0  0  0
    3.4482   -6.1854   27.6339 C   0  0  0  0  0  0  0  0  0  0  0  0
    5.6007   -7.2769   27.9356 C   0  0  0  0  0  0  0  0  0  0  0  0
    7.0130   -7.6357   27.9189 N   0  0  0  0  0  0  0  0  0  0  0  0
    7.4576   -8.0177   29.2473 C   0  0  0  0  0  0  0  0  0  0  0  0
    7.9723   -6.8033   29.8823 N   0  0  0  0  0  0  0  0  0  0  0  0
    7.0526   -6.2261   30.8247 N   0  0  0  0  0  0  0  0  0  0  0  0
    8.4778   -9.1147   29.3540 C   0  0  0  0  0  0  0  0  0  0  0  0
    8.5800   -9.9919   30.4244 C   0  0  0  0  0  0  0  0  0  0  0  0
    9.7261  -10.8218   30.3470 C   0  0  0  0  0  0  0  0  0  0  0  0
   10.4574  -10.5589   29.2140 C   0  0  0  0  0  0  0  0  0  0  0  0
    9.7225   -9.3734   28.2209 S   0  0  0  0  0  0  0  0  0  0  0  0
    5.4529   -4.7493   28.3822 C   0  0  0  0  0  0  0  0  0  0  0  0
    4.7665   -4.0314   29.3208 C   0  0  0  0  0  0  0  0  0  0  0  0
    3.4114   -4.0354   29.8096 C   0  0  0  0  0  0  0  0  0  0  0  0
    2.9147   -5.0383   30.6068 N   0  0  0  0  0  0  0  0  0  0  0  0
    1.7275   -4.5972   30.9667 C   0  0  0  0  0  0  0  0  0  0  0  0
    1.4000   -3.3760   30.4930 O   0  0  0  0  0  0  0  0  0  0  0  0
    2.4943   -3.0011   29.7536 C   0  0  0  0  0  0  0  0  0  0  0  0
    2.4420   -1.6505   29.1521 C   0  0  0  0  0  0  0  0  0  0  0  0
    1.0684   -1.2009   28.9313 N   0  0  0  0  0  0  0  0  0  0  0  0
    6.9326   -4.3164   28.0921 C   0  0  0  0  0  0  0  0  0  0  0  0
    7.7063   -5.1120   27.5420 O   0  0  0  0  0  0  0  0  0  0  0  0
    7.5610   -2.9913   28.5600 C   0  0  0  0  0  0  0  0  0  0  0  0
    6.6124   -1.4646   28.3768 S   0  0  0  0  0  0  0  0  0  0  0  0
    8.1007   -3.1475   30.2569 Cl  0  0  0  0  0  0  0  0  0  0  0  0
    4.1744   -8.1085   23.8739 H   0  0  0  0  0  0  0  0  0  0  0  0
    4.0777   -8.3303   25.5940 H   0  0  0  0  0  0  0  0  0  0  0  0
    3.2446   -6.9690   24.8350 H   0  0  0  0  0  0  0  0  0  0  0  0
    5.6040   -6.2358   24.0000 H   0  0  0  0  0  0  0  0  0  0  0  0
    6.2052   -7.3185   25.1925 H   0  0  0  0  0  0  0  0  0  0  0  0
    6.3500   -5.2421   25.9280 H   0  0  0  0  0  0  0  0  0  0  0  0
    3.8054   -3.9637   26.5043 H   0  0  0  0  0  0  0  0  0  0  0  0
    3.8845   -4.3221   24.8627 H   0  0  0  0  0  0  0  0  0  0  0  0
    6.1149   -3.2684   24.9363 H   0  0  0  0  0  0  0  0  0  0  0  0
    5.4923   -1.0083   25.6083 H   0  0  0  0  0  0  0  0  0  0  0  0
    3.9118   -1.6638   26.0396 H   0  0  0  0  0  0  0  0  0  0  0  0
    4.1840   -0.8726   23.8377 H   0  0  0  0  0  0  0  0  0  0  0  0
    3.2073   -6.5128   28.6495 H   0  0  0  0  0  0  0  0  0  0  0  0
    2.8080   -5.3281   27.4234 H   0  0  0  0  0  0  0  0  0  0  0  0
    3.0980   -7.0019   27.0051 H   0  0  0  0  0  0  0  0  0  0  0  0
    5.1942   -7.4290   28.9393 H   0  0  0  0  0  0  0  0  0  0  0  0
    5.1435   -8.0471   27.3237 H   0  0  0  0  0  0  0  0  0  0  0  0
    7.5751   -6.8135   27.6642 H   0  0  0  0  0  0  0  0  0  0  0  0
    6.6215   -8.4401   29.8038 H   0  0  0  0  0  0  0  0  0  0  0  0
    8.8689   -7.0332   30.3219 H   0  0  0  0  0  0  0  0  0  0  0  0
    6.1724   -5.9673   30.3849 H   0  0  0  0  0  0  0  0  0  0  0  0
    7.4353   -5.3503   31.1983 H   0  0  0  0  0  0  0  0  0  0  0  0
    7.8730  -10.0059   31.2465 H   0  0  0  0  0  0  0  0  0  0  0  0
   10.0094  -11.5612   31.0857 H   0  0  0  0  0  0  0  0  0  0  0  0
   11.3858  -11.0189   28.9061 H   0  0  0  0  0  0  0  0  0  0  0  0
    5.3112   -3.2686   29.8651 H   0  0  0  0  0  0  0  0  0  0  0  0
    0.9959   -5.0885   31.5926 H   0  0  0  0  0  0  0  0  0  0  0  0
    2.9754   -1.6403   28.1977 H   0  0  0  0  0  0  0  0  0  0  0  0
    2.9450   -0.9395   29.8157 H   0  0  0  0  0  0  0  0  0  0  0  0
    0.5365   -1.3463   29.7903 H   0  0  0  0  0  0  0  0  0  0  0  0
    0.6181   -1.8036   28.2402 H   0  0  0  0  0  0  0  0  0  0  0  0
    8.4689   -2.8467   27.9645 H   0  0  0  0  0  0  0  0  0  0  0  0
    7.6039   -0.6521   28.7686 H   0  0  0  0  0  0  0  0  0  0  0  0
  1  2  1  0
  2  3  1  0
  3  4  1  0
  4  5  1  0
  5  6  1  0
  6  7  1  0
  3  8  1  0
  8  9  1  0
  8 10  1  0
 10 11  1  0
 11 12  1  0
 12 13  1  0
 13 14  1  0
 12 15  1  0
 15 16  2  0
 16 17  1  0
 17 18  2  0
 18 19  1  0
  8 20  1  0
 20 21  2  3
 21 22  1  0
 22 23  1  0
 23 24  2  0
 24 25  1  0
 25 26  1  0
 26 27  1  0
 27 28  1  0
 20 29  1  0
 29 30  2  0
 29 31  1  0
 31 32  1  0
 31 33  1  0
 19 15  1  0
 26 22  2  0
  1 34  1  0
  1 35  1  0
  1 36  1  0
  2 37  1  0
  2 38  1  0
  3 39  1  0
  4 40  1  0
  4 41  1  0
  5 42  1  0
  6 43  1  0
  6 44  1  0
  7 45  1  0
  9 46  1  0
  9 47  1  0
  9 48  1  0
 10 49  1  0
 10 50  1  0
 11 51  1  0
 12 52  1  0
 13 53  1  0
 14 54  1  0
 14 55  1  0
 16 56  1  0
 17 57  1  0
 18 58  1  0
 21 59  1  0
 24 60  1  0
 27 61  1  0
 27 62  1  0
 28 63  1  0
 28 64  1  0
 31 65  1  0
 32 66  1  0
M  END
>  <Energy>  (404) 
105.81627732949789

>  <compound_id>  (404) 
2598

>  <target_id>  (404) 
1

>  <reference_id>  (404) 
175

>  <inspiration_ids>  (404) 
[175, 141]

>  <energy_score>  (404) 
-128.74502332515402

>  <distance_score>  (404) 
1.9719131683920408

>  <path>  (404) 
/opt/xchem-fragalysis-2/maxwin/BulkDock/SCRATCH/505736/C2598-P175/C2598-P175.minimised.mol

>  <scratch_subdir>  (404) 
/opt/xchem-fragalysis-2/maxwin/BulkDock/SCRATCH/505736/C2598-P175

>  <fragmenstein_runtime>  (404) 
9.583980560302734

>  <fragmenstein_outcome>  (404) 
too moved

>  <fragmenstein_mode>  (404) 
expansion

>  <fragmenstein_error>  (404) 


$$$$
C2598-P141
     RDKit          3D

 66 67  0  0  0  0  0  0  0  0999 V2000
    6.0910   -1.5204   28.3808 C   0  0  0  0  0  0  0  0  0  0  0  0
    6.2276   -2.2871   27.0755 C   0  0  0  0  0  0  0  0  0  0  0  0
    6.8141   -3.7385   27.0532 C   0  0  0  0  0  0  0  0  0  0  0  0
    8.3743   -3.6808   27.1996 C   0  0  0  0  0  0  0  0  0  0  0  0
    8.9110   -3.2119   28.4843 N   0  0  0  0  0  0  0  0  0  0  0  0
   10.3202   -3.5238   28.5755 C   0  0  0  0  0  0  0  0  0  0  0  0
   10.7485   -3.0493   29.8292 O   0  0  0  0  0  0  0  0  0  0  0  0
    6.1037   -4.8455   27.9307 C   0  0  0  0  0  0  0  0  0  0  0  0
    6.5151   -4.7218   29.3922 C   0  0  0  0  0  0  0  0  0  0  0  0
    6.4808   -6.2939   27.4310 C   0  0  0  0  0  0  0  0  0  0  0  0
    7.7832   -6.8847   27.7583 N   0  0  0  0  0  0  0  0  0  0  0  0
    7.6381   -8.2466   28.2497 C   0  0  0  0  0  0  0  0  0  0  0  0
    6.9391   -8.1680   29.5378 N   0  0  0  0  0  0  0  0  0  0  0  0
    7.6208   -7.3251   30.5129 N   0  0  0  0  0  0  0  0  0  0  0  0
    8.9779   -8.9341   28.3772 C   0  0  0  0  0  0  0  0  0  0  0  0
    9.9695   -8.8095   29.3395 C   0  0  0  0  0  0  0  0  0  0  0  0
   11.0281   -9.7389   29.1701 C   0  0  0  0  0  0  0  0  0  0  0  0
   10.8764  -10.4712   28.0173 C   0  0  0  0  0  0  0  0  0  0  0  0
    9.4531  -10.0571   27.1661 S   0  0  0  0  0  0  0  0  0  0  0  0
    4.5635   -4.6985   27.9078 C   0  0  0  0  0  0  0  0  0  0  0  0
    3.8271   -4.2158   28.9528 C   0  0  0  0  0  0  0  0  0  0  0  0
    2.4414   -3.9845   29.2025 C   0  0  0  0  0  0  0  0  0  0  0  0
    1.6875   -4.9274   29.8625 N   0  0  0  0  0  0  0  0  0  0  0  0
    0.5507   -4.3104   30.0975 C   0  0  0  0  0  0  0  0  0  0  0  0
    0.5067   -3.0233   29.6932 O   0  0  0  0  0  0  0  0  0  0  0  0
    1.7641   -2.7863   29.1913 C   0  0  0  0  0  0  0  0  0  0  0  0
    2.0786   -1.3931   28.8218 C   0  0  0  0  0  0  0  0  0  0  0  0
    1.0724   -0.4720   29.3444 N   0  0  0  0  0  0  0  0  0  0  0  0
    3.9429   -5.0333   26.6143 C   0  0  0  0  0  0  0  0  0  0  0  0
    3.8463   -4.1223   25.7919 O   0  0  0  0  0  0  0  0  0  0  0  0
    3.3161   -6.3706   26.3911 C   0  0  0  0  0  0  0  0  0  0  0  0
    4.2202   -7.6035   25.4815 S   0  0  0  0  0  0  0  0  0  0  0  0
    2.6954   -7.0826   27.8683 Cl  0  0  0  0  0  0  0  0  0  0  0  0
    7.0278   -1.4293   28.9285 H   0  0  0  0  0  0  0  0  0  0  0  0
    5.7520   -0.5006   28.1638 H   0  0  0  0  0  0  0  0  0  0  0  0
    5.3444   -1.9568   29.0421 H   0  0  0  0  0  0  0  0  0  0  0  0
    6.8485   -1.6699   26.4142 H   0  0  0  0  0  0  0  0  0  0  0  0
    5.2420   -2.2907   26.5991 H   0  0  0  0  0  0  0  0  0  0  0  0
    6.6347   -4.0538   26.0169 H   0  0  0  0  0  0  0  0  0  0  0  0
    8.7669   -2.9889   26.4453 H   0  0  0  0  0  0  0  0  0  0  0  0
    8.7832   -4.6675   26.9644 H   0  0  0  0  0  0  0  0  0  0  0  0
    8.8498   -2.1951   28.4986 H   0  0  0  0  0  0  0  0  0  0  0  0
   10.5019   -4.6030   28.5406 H   0  0  0  0  0  0  0  0  0  0  0  0
   10.9086   -3.0329   27.7940 H   0  0  0  0  0  0  0  0  0  0  0  0
   10.0010   -3.2724   30.4088 H   0  0  0  0  0  0  0  0  0  0  0  0
    6.4012   -3.7117   29.7943 H   0  0  0  0  0  0  0  0  0  0  0  0
    5.9321   -5.3869   30.0344 H   0  0  0  0  0  0  0  0  0  0  0  0
    7.5641   -4.9467   29.5778 H   0  0  0  0  0  0  0  0  0  0  0  0
    6.4485   -6.2880   26.3378 H   0  0  0  0  0  0  0  0  0  0  0  0
    5.6878   -6.9602   27.7817 H   0  0  0  0  0  0  0  0  0  0  0  0
    8.1945   -6.4104   28.5584 H   0  0  0  0  0  0  0  0  0  0  0  0
    7.0135   -8.8226   27.5562 H   0  0  0  0  0  0  0  0  0  0  0  0
    6.7677   -9.1335   29.8628 H   0  0  0  0  0  0  0  0  0  0  0  0
    6.9635   -6.7554   31.0463 H   0  0  0  0  0  0  0  0  0  0  0  0
    8.0769   -7.9022   31.2258 H   0  0  0  0  0  0  0  0  0  0  0  0
    9.9440   -8.0956   30.1493 H   0  0  0  0  0  0  0  0  0  0  0  0
   11.8819   -9.8335   29.8293 H   0  0  0  0  0  0  0  0  0  0  0  0
   11.5404  -11.2261   27.6194 H   0  0  0  0  0  0  0  0  0  0  0  0
    4.3558   -3.9377   29.8588 H   0  0  0  0  0  0  0  0  0  0  0  0
   -0.3382   -4.7017   30.5699 H   0  0  0  0  0  0  0  0  0  0  0  0
    2.1254   -1.3031   27.7333 H   0  0  0  0  0  0  0  0  0  0  0  0
    3.0556   -1.1067   29.2214 H   0  0  0  0  0  0  0  0  0  0  0  0
    1.1611    0.4217   28.8662 H   0  0  0  0  0  0  0  0  0  0  0  0
    0.1501   -0.8337   29.0905 H   0  0  0  0  0  0  0  0  0  0  0  0
    2.4511   -6.0815   25.8227 H   0  0  0  0  0  0  0  0  0  0  0  0
    4.7349   -6.8201   24.5226 H   0  0  0  0  0  0  0  0  0  0  0  0
  1  2  1  0
  2  3  1  0
  3  4  1  0
  4  5  1  0
  5  6  1  0
  6  7  1  0
  3  8  1  0
  8  9  1  0
  8 10  1  0
 10 11  1  0
 11 12  1  0
 12 13  1  0
 13 14  1  0
 12 15  1  0
 15 16  2  0
 16 17  1  0
 17 18  2  0
 18 19  1  0
  8 20  1  0
 20 21  2  3
 21 22  1  0
 22 23  1  0
 23 24  2  0
 24 25  1  0
 25 26  1  0
 26 27  1  0
 27 28  1  0
 20 29  1  0
 29 30  2  0
 29 31  1  0
 31 32  1  0
 31 33  1  0
 19 15  1  0
 26 22  2  0
  1 34  1  0
  1 35  1  0
  1 36  1  0
  2 37  1  0
  2 38  1  0
  3 39  1  0
  4 40  1  0
  4 41  1  0
  5 42  1  0
  6 43  1  0
  6 44  1  0
  7 45  1  0
  9 46  1  0
  9 47  1  0
  9 48  1  0
 10 49  1  0
 10 50  1  0
 11 51  1  0
 12 52  1  0
 13 53  1  0
 14 54  1  0
 14 55  1  0
 16 56  1  0
 17 57  1  0
 18 58  1  0
 21 59  1  0
 24 60  1  0
 27 61  1  0
 27 62  1  0
 28 63  1  0
 28 64  1  0
 31 65  1  0
 32 66  1  0
M  END
>  <Energy>  (405) 
95.615781448176207

>  <compound_id>  (405) 
2598

>  <target_id>  (405) 
1

>  <reference_id>  (405) 
141

>  <inspiration_ids>  (405) 
[175, 141]

>  <energy_score>  (405) 
-138.94551920647865

>  <distance_score>  (405) 
2.5475934915319693

>  <path>  (405) 
/opt/xchem-fragalysis-2/maxwin/BulkDock/SCRATCH/505736/C2598-P141/C2598-P141.minimised.mol

>  <scratch_subdir>  (405) 
/opt/xchem-fragalysis-2/maxwin/BulkDock/SCRATCH/505736/C2598-P141

>  <fragmenstein_runtime>  (405) 
11.91824221611023

>  <fragmenstein_outcome>  (405) 
too moved

>  <fragmenstein_mode>  (405) 
expansion

>  <fragmenstein_error>  (405) 


$$$$
C2599-P175
     RDKit          3D

 60 65  0  0  0  0  0  0  0  0999 V2000
    0.2843   -8.0987   32.4701 N   0  0  0  0  0  0  0  0  0  0  0  0
   -0.5007   -9.0258   31.8521 C   0  0  0  0  0  0  0  0  0  0  0  0
   -1.7484   -9.1277   32.1000 N   0  0  0  0  0  0  0  0  0  0  0  0
   -2.1467   -9.7862   31.0137 N   0  0  0  0  0  0  0  0  0  0  0  0
   -1.2786  -10.8030   30.5606 C   0  0  0  0  0  0  0  0  0  0  0  0
   -1.8220  -12.0382   29.3388 C   0  0  0  0  0  0  0  0  0  0  0  0
   -1.3391  -14.0777   28.8996 C   0  0  0  0  0  0  0  0  0  0  0  0
    0.2807  -15.2608   29.4402 N   0  0  0  0  0  0  0  0  0  0  0  0
    2.2206  -14.6145   29.7320 C   0  0  0  0  0  0  0  0  0  0  0  0
    2.6832  -16.1693   28.7440 S   0  0  0  0  0  0  0  0  0  0  0  0
    2.8508  -14.6907   31.3548 Cl  0  0  0  0  0  0  0  0  0  0  0  0
    3.0068  -13.0990   28.5696 C   0  0  0  0  0  0  0  0  0  0  0  0
    3.4007  -13.5692   27.5285 O   0  0  0  0  0  0  0  0  0  0  0  0
    2.8874  -11.1927   28.9448 N   0  0  0  0  0  0  0  0  0  0  0  0
    3.1811   -9.4338   27.4838 C   0  0  0  0  0  0  0  0  0  0  0  0
    4.9059   -8.2204   27.6741 C   0  0  0  0  0  0  0  0  0  0  0  0
    4.9682   -7.3146   28.6384 N   0  0  0  0  0  0  0  0  0  0  0  0
    6.2991   -7.0413   28.8396 N   0  0  0  0  0  0  0  0  0  0  0  0
    6.9965   -7.7590   27.9786 C   0  0  0  0  0  0  0  0  0  0  0  0
    8.3778   -8.1049   28.1163 C   0  0  0  0  0  0  0  0  0  0  0  0
    9.2140   -7.7310   29.1510 C   0  0  0  0  0  0  0  0  0  0  0  0
   10.4943   -8.3519   29.0721 C   0  0  0  0  0  0  0  0  0  0  0  0
   10.6018   -9.1677   27.9687 C   0  0  0  0  0  0  0  0  0  0  0  0
    9.1697   -9.1734   27.0338 S   0  0  0  0  0  0  0  0  0  0  0  0
    6.1361   -8.2826   27.0412 N   0  0  0  0  0  0  0  0  0  0  0  0
    2.5389   -7.9976   27.2854 C   0  0  0  0  0  0  0  0  0  0  0  0
    3.2238   -7.9391   25.7784 C   0  0  0  0  0  0  0  0  0  0  0  0
    3.3748   -9.4363   25.7123 C   0  0  0  0  0  0  0  0  0  0  0  0
   -1.7522  -10.8799   28.4993 C   0  0  0  0  0  0  0  0  0  0  0  0
   -0.7201   -9.2818   28.7251 C   0  0  0  0  0  0  0  0  0  0  0  0
   -0.8125   -7.6483   29.4713 C   0  0  0  0  0  0  0  0  0  0  0  0
   -1.6172   -7.0814   30.4290 C   0  0  0  0  0  0  0  0  0  0  0  0
   -1.3065   -5.9702   31.2432 N   0  0  0  0  0  0  0  0  0  0  0  0
   -0.1781   -5.2949   30.9988 C   0  0  0  0  0  0  0  0  0  0  0  0
    0.7112   -5.8276   30.1307 C   0  0  0  0  0  0  0  0  0  0  0  0
    0.4372   -6.9930   29.4721 N   0  0  0  0  0  0  0  0  0  0  0  0
    0.3192   -9.4652   29.5056 C   0  0  0  0  0  0  0  0  0  0  0  0
   -0.3120   -9.8242   30.6518 N   0  0  0  0  0  0  0  0  0  0  0  0
    0.0435   -8.1287   33.4688 H   0  0  0  0  0  0  0  0  0  0  0  0
   -0.1080   -7.1725   32.2929 H   0  0  0  0  0  0  0  0  0  0  0  0
   -1.4228  -14.2987   27.8173 H   0  0  0  0  0  0  0  0  0  0  0  0
   -2.1602  -14.6842   29.3411 H   0  0  0  0  0  0  0  0  0  0  0  0
    0.0200  -15.7714   30.2940 H   0  0  0  0  0  0  0  0  0  0  0  0
    2.8198  -15.5135   27.5787 H   0  0  0  0  0  0  0  0  0  0  0  0
    2.4455  -11.0460   29.8629 H   0  0  0  0  0  0  0  0  0  0  0  0
    8.9063   -7.0644   29.9491 H   0  0  0  0  0  0  0  0  0  0  0  0
   11.2925   -8.2086   29.7906 H   0  0  0  0  0  0  0  0  0  0  0  0
   11.4552   -9.7585   27.6644 H   0  0  0  0  0  0  0  0  0  0  0  0
    6.4064   -8.8822   26.2728 H   0  0  0  0  0  0  0  0  0  0  0  0
    1.6420   -8.2974   27.7353 H   0  0  0  0  0  0  0  0  0  0  0  0
    2.8013   -7.1128   27.8789 H   0  0  0  0  0  0  0  0  0  0  0  0
    4.1486   -7.3473   25.7458 H   0  0  0  0  0  0  0  0  0  0  0  0
    2.8457   -7.6225   24.8116 H   0  0  0  0  0  0  0  0  0  0  0  0
    4.3534   -9.7134   25.2967 H   0  0  0  0  0  0  0  0  0  0  0  0
    2.6271   -9.9224   25.0814 H   0  0  0  0  0  0  0  0  0  0  0  0
   -1.8690  -11.1072   27.4250 H   0  0  0  0  0  0  0  0  0  0  0  0
   -2.5555   -7.4990   30.7505 H   0  0  0  0  0  0  0  0  0  0  0  0
   -0.0020   -4.3855   31.5568 H   0  0  0  0  0  0  0  0  0  0  0  0
    1.6774   -5.3783   29.9340 H   0  0  0  0  0  0  0  0  0  0  0  0
    1.1519   -8.8247   29.7304 H   0  0  0  0  0  0  0  0  0  0  0  0
  1  2  1  0
  2  3  2  0
  3  4  1  0
  4  5  2  0
  5  6  1  0
  6  7  1  0
  7  8  1  0
  8  9  1  0
  9 10  1  0
  9 11  1  0
  9 12  1  0
 12 13  2  0
 12 14  1  0
 14 15  1  0
 15 16  1  0
 16 17  2  0
 17 18  1  0
 18 19  2  0
 19 20  1  0
 20 21  2  0
 21 22  1  0
 22 23  2  0
 23 24  1  0
 19 25  1  0
 15 26  1  0
 26 27  1  0
 27 28  1  0
  6 29  2  0
 29 30  1  0
 30 31  1  0
 31 32  2  0
 32 33  1  0
 33 34  2  0
 34 35  1  0
 35 36  2  0
 30 37  2  0
 37 38  1  0
 38  2  1  0
 38  5  1  0
 28 15  1  0
 36 31  1  0
 25 16  1  0
 24 20  1  0
  1 39  1  0
  1 40  1  0
  7 41  1  0
  7 42  1  0
  8 43  1  0
 10 44  1  0
 14 45  1  0
 21 46  1  0
 22 47  1  0
 23 48  1  0
 25 49  1  0
 26 50  1  0
 26 51  1  0
 27 52  1  0
 27 53  1  0
 28 54  1  0
 28 55  1  0
 29 56  1  0
 32 57  1  0
 34 58  1  0
 35 59  1  0
 37 60  1  0
M  END
>  <Energy>  (406) 
1455.7143345195527

>  <compound_id>  (406) 
2599

>  <target_id>  (406) 
1

>  <reference_id>  (406) 
175

>  <inspiration_ids>  (406) 
[175, 144]

>  <energy_score>  (406) 
1212.7283944224237

>  <distance_score>  (406) 
7.461316515714552

>  <path>  (406) 
/opt/xchem-fragalysis-2/maxwin/BulkDock/SCRATCH/505736/C2599-P175/C2599-P175.minimised.mol

>  <scratch_subdir>  (406) 
/opt/xchem-fragalysis-2/maxwin/BulkDock/SCRATCH/505736/C2599-P175

>  <fragmenstein_runtime>  (406) 
34.13326168060303

>  <fragmenstein_outcome>  (406) 
too moved

>  <fragmenstein_mode>  (406) 
expansion

>  <fragmenstein_error>  (406) 


$$$$
C2599-P144
     RDKit          3D

 60 65  0  0  0  0  0  0  0  0999 V2000
   -0.9045   -6.8528   33.0126 N   0  0  0  0  0  0  0  0  0  0  0  0
   -0.4889   -6.5166   31.7733 C   0  0  0  0  0  0  0  0  0  0  0  0
   -0.8098   -7.0981   30.6434 N   0  0  0  0  0  0  0  0  0  0  0  0
   -0.1484   -6.4363   29.6244 N   0  0  0  0  0  0  0  0  0  0  0  0
    0.6000   -5.4631   30.1241 C   0  0  0  0  0  0  0  0  0  0  0  0
    1.6035   -4.5048   29.5250 C   0  0  0  0  0  0  0  0  0  0  0  0
    1.9414   -4.4632   27.9197 C   0  0  0  0  0  0  0  0  0  0  0  0
    2.5397   -3.6080   26.6373 N   0  0  0  0  0  0  0  0  0  0  0  0
    3.7225   -2.8818   27.1392 C   0  0  0  0  0  0  0  0  0  0  0  0
    3.0649   -1.6119   28.1967 S   0  0  0  0  0  0  0  0  0  0  0  0
    4.5162   -2.0919   25.7457 Cl  0  0  0  0  0  0  0  0  0  0  0  0
    4.7981   -3.8288   27.6993 C   0  0  0  0  0  0  0  0  0  0  0  0
    5.5321   -3.5930   28.5811 O   0  0  0  0  0  0  0  0  0  0  0  0
    4.7175   -5.0753   26.7507 N   0  0  0  0  0  0  0  0  0  0  0  0
    5.5800   -6.2237   26.6415 C   0  0  0  0  0  0  0  0  0  0  0  0
    6.0415   -6.8896   27.9470 C   0  0  0  0  0  0  0  0  0  0  0  0
    5.8096   -6.4890   29.1726 N   0  0  0  0  0  0  0  0  0  0  0  0
    6.7649   -7.0871   29.9767 N   0  0  0  0  0  0  0  0  0  0  0  0
    7.5013   -7.8694   29.2177 C   0  0  0  0  0  0  0  0  0  0  0  0
    8.7391   -8.4923   29.5433 C   0  0  0  0  0  0  0  0  0  0  0  0
    9.4247   -8.3973   30.7344 C   0  0  0  0  0  0  0  0  0  0  0  0
   10.6560   -9.1162   30.7086 C   0  0  0  0  0  0  0  0  0  0  0  0
   10.8651   -9.7430   29.5003 C   0  0  0  0  0  0  0  0  0  0  0  0
    9.6177   -9.4069   28.3828 S   0  0  0  0  0  0  0  0  0  0  0  0
    6.9564   -7.9011   27.9734 N   0  0  0  0  0  0  0  0  0  0  0  0
    6.7649   -5.7762   25.7768 C   0  0  0  0  0  0  0  0  0  0  0  0
    6.5827   -6.9946   24.8915 C   0  0  0  0  0  0  0  0  0  0  0  0
    5.1949   -7.2099   25.5184 C   0  0  0  0  0  0  0  0  0  0  0  0
    2.2748   -3.7973   30.4681 C   0  0  0  0  0  0  0  0  0  0  0  0
    1.9940   -3.7936   31.9213 C   0  0  0  0  0  0  0  0  0  0  0  0
    2.7152   -2.9378   32.8977 C   0  0  0  0  0  0  0  0  0  0  0  0
    3.1699   -1.6593   32.5780 C   0  0  0  0  0  0  0  0  0  0  0  0
    3.8227   -0.8592   33.4587 N   0  0  0  0  0  0  0  0  0  0  0  0
    4.0146   -1.3903   34.6849 C   0  0  0  0  0  0  0  0  0  0  0  0
    3.5626   -2.6541   35.0199 C   0  0  0  0  0  0  0  0  0  0  0  0
    2.8997   -3.4474   34.1449 N   0  0  0  0  0  0  0  0  0  0  0  0
    1.0764   -4.6592   32.3923 C   0  0  0  0  0  0  0  0  0  0  0  0
    0.4108   -5.4905   31.5141 N   0  0  0  0  0  0  0  0  0  0  0  0
   -1.0108   -6.1328   33.7243 H   0  0  0  0  0  0  0  0  0  0  0  0
   -1.6548   -7.5403   33.0583 H   0  0  0  0  0  0  0  0  0  0  0  0
    2.4591   -5.4137   27.7929 H   0  0  0  0  0  0  0  0  0  0  0  0
    0.9025   -4.4203   27.5967 H   0  0  0  0  0  0  0  0  0  0  0  0
    1.9048   -2.8021   26.7118 H   0  0  0  0  0  0  0  0  0  0  0  0
    4.2566   -1.0439   28.4434 H   0  0  0  0  0  0  0  0  0  0  0  0
    3.9015   -4.9905   26.1438 H   0  0  0  0  0  0  0  0  0  0  0  0
    9.0517   -7.8467   31.5903 H   0  0  0  0  0  0  0  0  0  0  0  0
   11.3415   -9.1814   31.5444 H   0  0  0  0  0  0  0  0  0  0  0  0
   11.7060  -10.3586   29.2123 H   0  0  0  0  0  0  0  0  0  0  0  0
    7.3747   -8.3589   27.1799 H   0  0  0  0  0  0  0  0  0  0  0  0
    6.5501   -4.8360   25.2562 H   0  0  0  0  0  0  0  0  0  0  0  0
    7.7323   -5.6977   26.2825 H   0  0  0  0  0  0  0  0  0  0  0  0
    7.2984   -7.7972   25.0934 H   0  0  0  0  0  0  0  0  0  0  0  0
    6.6020   -6.7651   23.8281 H   0  0  0  0  0  0  0  0  0  0  0  0
    4.9923   -8.2415   25.8094 H   0  0  0  0  0  0  0  0  0  0  0  0
    4.3573   -6.8878   24.9022 H   0  0  0  0  0  0  0  0  0  0  0  0
    3.1539   -3.2260   30.2005 H   0  0  0  0  0  0  0  0  0  0  0  0
    3.0140   -1.2205   31.5987 H   0  0  0  0  0  0  0  0  0  0  0  0
    4.5441   -0.7681   35.3974 H   0  0  0  0  0  0  0  0  0  0  0  0
    3.7224   -3.0672   36.0095 H   0  0  0  0  0  0  0  0  0  0  0  0
    0.8402   -4.7590   33.4455 H   0  0  0  0  0  0  0  0  0  0  0  0
  1  2  1  0
  2  3  2  0
  3  4  1  0
  4  5  2  0
  5  6  1  0
  6  7  1  0
  7  8  1  0
  8  9  1  0
  9 10  1  0
  9 11  1  0
  9 12  1  0
 12 13  2  0
 12 14  1  0
 14 15  1  0
 15 16  1  0
 16 17  2  0
 17 18  1  0
 18 19  2  0
 19 20  1  0
 20 21  2  0
 21 22  1  0
 22 23  2  0
 23 24  1  0
 19 25  1  0
 15 26  1  0
 26 27  1  0
 27 28  1  0
  6 29  2  0
 29 30  1  0
 30 31  1  0
 31 32  2  0
 32 33  1  0
 33 34  2  0
 34 35  1  0
 35 36  2  0
 30 37  2  0
 37 38  1  0
 38  2  1  0
 38  5  1  0
 28 15  1  0
 36 31  1  0
 25 16  1  0
 24 20  1  0
  1 39  1  0
  1 40  1  0
  7 41  1  0
  7 42  1  0
  8 43  1  0
 10 44  1  0
 14 45  1  0
 21 46  1  0
 22 47  1  0
 23 48  1  0
 25 49  1  0
 26 50  1  0
 26 51  1  0
 27 52  1  0
 27 53  1  0
 28 54  1  0
 28 55  1  0
 29 56  1  0
 32 57  1  0
 34 58  1  0
 35 59  1  0
 37 60  1  0
M  END
>  <Energy>  (407) 
209.14655871558168

>  <compound_id>  (407) 
2599

>  <target_id>  (407) 
1

>  <reference_id>  (407) 
144

>  <inspiration_ids>  (407) 
[175, 144]

>  <energy_score>  (407) 
-24.60112231074413

>  <distance_score>  (407) 
5.3734047978830395

>  <path>  (407) 
/opt/xchem-fragalysis-2/maxwin/BulkDock/SCRATCH/505736/C2599-P144/C2599-P144.minimised.mol

>  <scratch_subdir>  (407) 
/opt/xchem-fragalysis-2/maxwin/BulkDock/SCRATCH/505736/C2599-P144

>  <fragmenstein_runtime>  (407) 
15.840434312820435

>  <fragmenstein_outcome>  (407) 
too moved

>  <fragmenstein_mode>  (407) 
expansion

>  <fragmenstein_error>  (407) 


$$$$
C2600-P175
     RDKit          3D

 63 68  0  0  0  0  0  0  0  0999 V2000
    0.8360   -2.4701   35.1904 O   0  0  0  0  0  0  0  0  0  0  0  0
    0.3351   -3.5303   35.2610 C   0  0  0  0  0  0  0  0  0  0  0  0
   -0.3299   -4.2067   36.4155 N   0  0  0  0  0  0  0  0  0  0  0  0
   -0.6170   -3.7511   37.6677 C   0  0  0  0  0  0  0  0  0  0  0  0
   -0.4291   -2.4695   38.2225 C   0  0  0  0  0  0  0  0  0  0  0  0
   -0.8680   -2.3963   39.4837 N   0  0  0  0  0  0  0  0  0  0  0  0
   -1.3363   -3.6328   39.7271 N   0  0  0  0  0  0  0  0  0  0  0  0
   -1.1716   -4.4921   38.6771 C   0  0  0  0  0  0  0  0  0  0  0  0
    0.1967   -4.6120   34.2162 N   0  0  0  0  0  0  0  0  0  0  0  0
    0.6924   -4.6903   32.9373 C   0  0  0  0  0  0  0  0  0  0  0  0
    1.4901   -3.7294   32.4326 C   0  0  0  0  0  0  0  0  0  0  0  0
    1.9977   -3.8262   31.0743 C   0  0  0  0  0  0  0  0  0  0  0  0
    1.7339   -4.8740   30.2580 C   0  0  0  0  0  0  0  0  0  0  0  0
    2.2468   -4.8855   28.8183 C   0  0  0  0  0  0  0  0  0  0  0  0
    3.6607   -4.5589   28.6081 N   0  0  0  0  0  0  0  0  0  0  0  0
    3.9523   -3.8180   27.3478 C   0  0  0  0  0  0  0  0  0  0  0  0
    3.3823   -2.1148   27.4784 S   0  0  0  0  0  0  0  0  0  0  0  0
    3.2636   -4.6350   25.9134 Cl  0  0  0  0  0  0  0  0  0  0  0  0
    5.5214   -3.8714   27.0796 C   0  0  0  0  0  0  0  0  0  0  0  0
    6.0760   -3.0304   26.4283 O   0  0  0  0  0  0  0  0  0  0  0  0
    6.0254   -5.0956   27.6698 N   0  0  0  0  0  0  0  0  0  0  0  0
    7.3272   -5.7315   27.5781 C   0  0  0  0  0  0  0  0  0  0  0  0
    7.4922   -6.6919   28.8031 C   0  0  0  0  0  0  0  0  0  0  0  0
    7.2793   -6.3313   30.0494 N   0  0  0  0  0  0  0  0  0  0  0  0
    7.7054   -7.3612   30.8535 N   0  0  0  0  0  0  0  0  0  0  0  0
    8.1058   -8.3478   30.0789 C   0  0  0  0  0  0  0  0  0  0  0  0
    8.6345   -9.5981   30.5164 C   0  0  0  0  0  0  0  0  0  0  0  0
    8.7648  -10.0273   31.8215 C   0  0  0  0  0  0  0  0  0  0  0  0
    9.3405  -11.3279   31.9121 C   0  0  0  0  0  0  0  0  0  0  0  0
    9.6330  -11.8490   30.6720 C   0  0  0  0  0  0  0  0  0  0  0  0
    9.2116  -10.7727   29.4144 S   0  0  0  0  0  0  0  0  0  0  0  0
    7.9415   -7.9787   28.7753 N   0  0  0  0  0  0  0  0  0  0  0  0
    8.5749   -4.8348   27.3742 C   0  0  0  0  0  0  0  0  0  0  0  0
    9.1342   -5.9643   26.4731 C   0  0  0  0  0  0  0  0  0  0  0  0
    7.6608   -6.3562   26.1942 C   0  0  0  0  0  0  0  0  0  0  0  0
    0.8834   -5.9085   30.7973 C   0  0  0  0  0  0  0  0  0  0  0  0
    0.4286   -7.0331   30.2789 N   0  0  0  0  0  0  0  0  0  0  0  0
   -0.3815   -7.6399   31.2084 N   0  0  0  0  0  0  0  0  0  0  0  0
   -0.3836   -6.8886   32.2863 C   0  0  0  0  0  0  0  0  0  0  0  0
    0.3949   -5.7751   32.0961 N   0  0  0  0  0  0  0  0  0  0  0  0
   -0.5754   -5.1400   36.1556 H   0  0  0  0  0  0  0  0  0  0  0  0
   -0.0024   -1.5889   37.7582 H   0  0  0  0  0  0  0  0  0  0  0  0
   -1.7545   -3.8229   40.6325 H   0  0  0  0  0  0  0  0  0  0  0  0
   -1.4752   -5.5232   38.7567 H   0  0  0  0  0  0  0  0  0  0  0  0
   -0.3593   -5.3604   34.5845 H   0  0  0  0  0  0  0  0  0  0  0  0
    1.7796   -2.8464   32.9960 H   0  0  0  0  0  0  0  0  0  0  0  0
    2.5783   -2.9710   30.7351 H   0  0  0  0  0  0  0  0  0  0  0  0
    1.5702   -4.2482   28.2377 H   0  0  0  0  0  0  0  0  0  0  0  0
    2.1562   -5.9090   28.4497 H   0  0  0  0  0  0  0  0  0  0  0  0
    3.9758   -3.9270   29.3449 H   0  0  0  0  0  0  0  0  0  0  0  0
    4.0441   -1.6834   26.3905 H   0  0  0  0  0  0  0  0  0  0  0  0
    5.2861   -5.5246   28.2283 H   0  0  0  0  0  0  0  0  0  0  0  0
    8.4593   -9.4322   32.6749 H   0  0  0  0  0  0  0  0  0  0  0  0
    9.5280  -11.8546   32.8400 H   0  0  0  0  0  0  0  0  0  0  0  0
   10.0670  -12.8142   30.4454 H   0  0  0  0  0  0  0  0  0  0  0  0
    8.2078   -8.5234   27.9690 H   0  0  0  0  0  0  0  0  0  0  0  0
    8.4045   -3.8938   26.8430 H   0  0  0  0  0  0  0  0  0  0  0  0
    9.1744   -4.6145   28.2631 H   0  0  0  0  0  0  0  0  0  0  0  0
    9.7470   -5.6537   25.6285 H   0  0  0  0  0  0  0  0  0  0  0  0
    9.7078   -6.7249   27.0166 H   0  0  0  0  0  0  0  0  0  0  0  0
    7.2149   -5.8298   25.3413 H   0  0  0  0  0  0  0  0  0  0  0  0
    7.4720   -7.4250   26.0623 H   0  0  0  0  0  0  0  0  0  0  0  0
   -0.9207   -7.1040   33.1980 H   0  0  0  0  0  0  0  0  0  0  0  0
  1  2  2  0
  2  3  1  0
  3  4  1  0
  4  5  1  0
  5  6  2  0
  6  7  1  0
  7  8  1  0
  2  9  1  0
  9 10  1  0
 10 11  2  0
 11 12  1  0
 12 13  2  0
 13 14  1  0
 14 15  1  0
 15 16  1  0
 16 17  1  0
 16 18  1  0
 16 19  1  0
 19 20  2  0
 19 21  1  0
 21 22  1  0
 22 23  1  0
 23 24  2  0
 24 25  1  0
 25 26  2  0
 26 27  1  0
 27 28  2  0
 28 29  1  0
 29 30  2  0
 30 31  1  0
 26 32  1  0
 22 33  1  0
 33 34  1  0
 34 35  1  0
 13 36  1  0
 36 37  2  0
 37 38  1  0
 38 39  2  0
 39 40  1  0
  8  4  2  0
 40 10  1  0
 35 22  1  0
 40 36  1  0
 32 23  1  0
 31 27  1  0
  3 41  1  0
  5 42  1  0
  7 43  1  0
  8 44  1  0
  9 45  1  0
 11 46  1  0
 12 47  1  0
 14 48  1  0
 14 49  1  0
 15 50  1  0
 17 51  1  0
 21 52  1  0
 28 53  1  0
 29 54  1  0
 30 55  1  0
 32 56  1  0
 33 57  1  0
 33 58  1  0
 34 59  1  0
 34 60  1  0
 35 61  1  0
 35 62  1  0
 39 63  1  0
M  END
>  <Energy>  (408) 
54.147865415798321

>  <compound_id>  (408) 
2600

>  <target_id>  (408) 
1

>  <reference_id>  (408) 
175

>  <inspiration_ids>  (408) 
[175, 145]

>  <energy_score>  (408) 
-102.70445619711393

>  <distance_score>  (408) 
5.1949971873778775

>  <path>  (408) 
/opt/xchem-fragalysis-2/maxwin/BulkDock/SCRATCH/505736/C2600-P175/C2600-P175.minimised.mol

>  <scratch_subdir>  (408) 
/opt/xchem-fragalysis-2/maxwin/BulkDock/SCRATCH/505736/C2600-P175

>  <fragmenstein_runtime>  (408) 
22.22555661201477

>  <fragmenstein_outcome>  (408) 
too moved

>  <fragmenstein_mode>  (408) 
expansion

>  <fragmenstein_error>  (408) 


$$$$
C2600-P145
     RDKit          3D

 63 68  0  0  0  0  0  0  0  0999 V2000
   -0.9614    0.4025   32.4160 O   0  0  0  0  0  0  0  0  0  0  0  0
   -1.2394   -0.6987   32.7178 C   0  0  0  0  0  0  0  0  0  0  0  0
   -2.2064   -1.2047   33.7471 N   0  0  0  0  0  0  0  0  0  0  0  0
   -3.0870   -0.5353   34.5456 C   0  0  0  0  0  0  0  0  0  0  0  0
   -3.9795   -1.0666   35.4916 C   0  0  0  0  0  0  0  0  0  0  0  0
   -4.7135   -0.1272   36.0930 N   0  0  0  0  0  0  0  0  0  0  0  0
   -4.2698    1.0157   35.5330 N   0  0  0  0  0  0  0  0  0  0  0  0
   -3.2986    0.8181   34.5942 C   0  0  0  0  0  0  0  0  0  0  0  0
   -0.7544   -2.0116   32.1561 N   0  0  0  0  0  0  0  0  0  0  0  0
    0.0689   -2.2808   31.0862 C   0  0  0  0  0  0  0  0  0  0  0  0
    0.5947   -1.3044   30.3242 C   0  0  0  0  0  0  0  0  0  0  0  0
    1.4287   -1.6296   29.1765 C   0  0  0  0  0  0  0  0  0  0  0  0
    1.7267   -2.8961   28.7973 C   0  0  0  0  0  0  0  0  0  0  0  0
    2.6265   -3.0908   27.5534 C   0  0  0  0  0  0  0  0  0  0  0  0
    1.8963   -3.8134   26.5087 N   0  0  0  0  0  0  0  0  0  0  0  0
    2.4859   -4.0444   25.1372 C   0  0  0  0  0  0  0  0  0  0  0  0
    0.6847   -4.7966   23.7144 S   0  0  0  0  0  0  0  0  0  0  0  0
    2.5554   -2.8476   23.2306 Cl  0  0  0  0  0  0  0  0  0  0  0  0
    3.9880   -4.3880   25.4493 C   0  0  0  0  0  0  0  0  0  0  0  0
    4.7530   -3.4748   25.2886 O   0  0  0  0  0  0  0  0  0  0  0  0
    4.2023   -5.7069   25.9699 N   0  0  0  0  0  0  0  0  0  0  0  0
    5.4248   -6.3738   26.4214 C   0  0  0  0  0  0  0  0  0  0  0  0
    5.6317   -6.5042   27.9611 C   0  0  0  0  0  0  0  0  0  0  0  0
    5.2543   -5.6392   28.8754 N   0  0  0  0  0  0  0  0  0  0  0  0
    6.1349   -5.7644   29.9429 N   0  0  0  0  0  0  0  0  0  0  0  0
    6.9870   -6.7291   29.6601 C   0  0  0  0  0  0  0  0  0  0  0  0
    8.1719   -7.0941   30.3711 C   0  0  0  0  0  0  0  0  0  0  0  0
    8.4837   -6.8119   31.6846 C   0  0  0  0  0  0  0  0  0  0  0  0
    9.7636   -7.3179   32.0638 C   0  0  0  0  0  0  0  0  0  0  0  0
   10.4012   -7.9521   31.0210 C   0  0  0  0  0  0  0  0  0  0  0  0
    9.4494   -7.9558   29.6015 S   0  0  0  0  0  0  0  0  0  0  0  0
    6.5900   -7.3248   28.5002 N   0  0  0  0  0  0  0  0  0  0  0  0
    6.7259   -5.7454   25.8537 C   0  0  0  0  0  0  0  0  0  0  0  0
    6.7401   -6.8188   24.7895 C   0  0  0  0  0  0  0  0  0  0  0  0
    5.7272   -7.6309   25.6072 C   0  0  0  0  0  0  0  0  0  0  0  0
    1.1729   -3.9500   29.6268 C   0  0  0  0  0  0  0  0  0  0  0  0
    1.2396   -5.2677   29.5722 N   0  0  0  0  0  0  0  0  0  0  0  0
    0.4748   -5.7966   30.5887 N   0  0  0  0  0  0  0  0  0  0  0  0
    0.0087   -4.7917   31.2884 C   0  0  0  0  0  0  0  0  0  0  0  0
    0.3798   -3.5989   30.7217 N   0  0  0  0  0  0  0  0  0  0  0  0
   -2.1394   -2.2044   33.8037 H   0  0  0  0  0  0  0  0  0  0  0  0
   -4.1255   -2.0996   35.7619 H   0  0  0  0  0  0  0  0  0  0  0  0
   -4.6761    1.8944   35.8380 H   0  0  0  0  0  0  0  0  0  0  0  0
   -2.8532    1.6449   34.0583 H   0  0  0  0  0  0  0  0  0  0  0  0
   -1.1315   -2.7643   32.6992 H   0  0  0  0  0  0  0  0  0  0  0  0
    0.4131   -0.2492   30.5072 H   0  0  0  0  0  0  0  0  0  0  0  0
    1.7971   -0.7780   28.6066 H   0  0  0  0  0  0  0  0  0  0  0  0
    3.5122   -3.6460   27.8793 H   0  0  0  0  0  0  0  0  0  0  0  0
    2.9661   -2.1230   27.1675 H   0  0  0  0  0  0  0  0  0  0  0  0
    1.7034   -4.7317   26.9211 H   0  0  0  0  0  0  0  0  0  0  0  0
    1.0099   -3.9577   22.7026 H   0  0  0  0  0  0  0  0  0  0  0  0
    3.3468   -6.2374   25.8822 H   0  0  0  0  0  0  0  0  0  0  0  0
    7.8202   -6.2650   32.3452 H   0  0  0  0  0  0  0  0  0  0  0  0
   10.1986   -7.2049   33.0497 H   0  0  0  0  0  0  0  0  0  0  0  0
   11.3803   -8.4123   31.0259 H   0  0  0  0  0  0  0  0  0  0  0  0
    7.1314   -8.0221   28.0144 H   0  0  0  0  0  0  0  0  0  0  0  0
    6.6455   -4.7242   25.4988 H   0  0  0  0  0  0  0  0  0  0  0  0
    7.6134   -5.7858   26.4984 H   0  0  0  0  0  0  0  0  0  0  0  0
    6.3832   -6.4725   23.8207 H   0  0  0  0  0  0  0  0  0  0  0  0
    7.7079   -7.3064   24.7003 H   0  0  0  0  0  0  0  0  0  0  0  0
    4.8581   -8.0258   25.0724 H   0  0  0  0  0  0  0  0  0  0  0  0
    6.2129   -8.4637   26.1217 H   0  0  0  0  0  0  0  0  0  0  0  0
   -0.5867   -4.8723   32.1842 H   0  0  0  0  0  0  0  0  0  0  0  0
  1  2  2  0
  2  3  1  0
  3  4  1  0
  4  5  1  0
  5  6  2  0
  6  7  1  0
  7  8  1  0
  2  9  1  0
  9 10  1  0
 10 11  2  0
 11 12  1  0
 12 13  2  0
 13 14  1  0
 14 15  1  0
 15 16  1  0
 16 17  1  0
 16 18  1  0
 16 19  1  0
 19 20  2  0
 19 21  1  0
 21 22  1  0
 22 23  1  0
 23 24  2  0
 24 25  1  0
 25 26  2  0
 26 27  1  0
 27 28  2  0
 28 29  1  0
 29 30  2  0
 30 31  1  0
 26 32  1  0
 22 33  1  0
 33 34  1  0
 34 35  1  0
 13 36  1  0
 36 37  2  0
 37 38  1  0
 38 39  2  0
 39 40  1  0
  8  4  2  0
 40 10  1  0
 35 22  1  0
 40 36  1  0
 32 23  1  0
 31 27  1  0
  3 41  1  0
  5 42  1  0
  7 43  1  0
  8 44  1  0
  9 45  1  0
 11 46  1  0
 12 47  1  0
 14 48  1  0
 14 49  1  0
 15 50  1  0
 17 51  1  0
 21 52  1  0
 28 53  1  0
 29 54  1  0
 30 55  1  0
 32 56  1  0
 33 57  1  0
 33 58  1  0
 34 59  1  0
 34 60  1  0
 35 61  1  0
 35 62  1  0
 39 63  1  0
M  END
>  <Energy>  (409) 
221.12680037666257

>  <compound_id>  (409) 
2600

>  <target_id>  (409) 
1

>  <reference_id>  (409) 
145

>  <inspiration_ids>  (409) 
[175, 145]

>  <energy_score>  (409) 
64.27447876376243

>  <distance_score>  (409) 
5.328167672985537

>  <path>  (409) 
/opt/xchem-fragalysis-2/maxwin/BulkDock/SCRATCH/505736/C2600-P145/C2600-P145.minimised.mol

>  <scratch_subdir>  (409) 
/opt/xchem-fragalysis-2/maxwin/BulkDock/SCRATCH/505736/C2600-P145

>  <fragmenstein_runtime>  (409) 
32.29707860946655

>  <fragmenstein_outcome>  (409) 
too moved

>  <fragmenstein_mode>  (409) 
expansion

>  <fragmenstein_error>  (409) 


$$$$
C2600-P175
     RDKit          3D

 63 68  0  0  0  0  0  0  0  0999 V2000
    3.0973   -5.7516   35.6479 O   0  0  0  0  0  0  0  0  0  0  0  0
    2.1229   -6.3500   35.5926 C   0  0  0  0  0  0  0  0  0  0  0  0
    1.3619   -7.1477   36.7048 N   0  0  0  0  0  0  0  0  0  0  0  0
    1.7094   -7.4093   37.9997 C   0  0  0  0  0  0  0  0  0  0  0  0
    0.9936   -8.0901   39.0000 C   0  0  0  0  0  0  0  0  0  0  0  0
    1.6619   -8.1567   40.1558 N   0  0  0  0  0  0  0  0  0  0  0  0
    2.7963   -7.4816   39.8977 N   0  0  0  0  0  0  0  0  0  0  0  0
    2.8747   -7.0258   38.6143 C   0  0  0  0  0  0  0  0  0  0  0  0
    1.1407   -6.5817   34.3848 N   0  0  0  0  0  0  0  0  0  0  0  0
    1.1517   -6.0529   33.1151 C   0  0  0  0  0  0  0  0  0  0  0  0
    2.0191   -5.0780   32.7869 C   0  0  0  0  0  0  0  0  0  0  0  0
    2.0160   -4.4966   31.4561 C   0  0  0  0  0  0  0  0  0  0  0  0
    1.1982   -4.8973   30.4517 C   0  0  0  0  0  0  0  0  0  0  0  0
    1.2127   -4.0692   29.0872 C   0  0  0  0  0  0  0  0  0  0  0  0
    2.4588   -3.7063   28.3371 N   0  0  0  0  0  0  0  0  0  0  0  0
    3.1331   -4.6589   27.4415 C   0  0  0  0  0  0  0  0  0  0  0  0
    2.7734   -6.4387   27.8796 S   0  0  0  0  0  0  0  0  0  0  0  0
    3.0231   -4.2451   25.4710 Cl  0  0  0  0  0  0  0  0  0  0  0  0
    4.7051   -4.6163   27.5352 C   0  0  0  0  0  0  0  0  0  0  0  0
    5.3899   -3.8924   28.1498 O   0  0  0  0  0  0  0  0  0  0  0  0
    5.0747   -5.8717   26.6628 N   0  0  0  0  0  0  0  0  0  0  0  0
    6.3169   -6.5161   26.4633 C   0  0  0  0  0  0  0  0  0  0  0  0
    6.8322   -7.0541   27.8034 C   0  0  0  0  0  0  0  0  0  0  0  0
    6.4332   -6.6316   28.9835 N   0  0  0  0  0  0  0  0  0  0  0  0
    7.0839   -7.3734   29.9268 N   0  0  0  0  0  0  0  0  0  0  0  0
    7.7850   -8.2915   29.3028 C   0  0  0  0  0  0  0  0  0  0  0  0
    8.5002   -9.3537   29.9141 C   0  0  0  0  0  0  0  0  0  0  0  0
    8.7816   -9.4964   31.2552 C   0  0  0  0  0  0  0  0  0  0  0  0
    9.5056  -10.6921   31.5270 C   0  0  0  0  0  0  0  0  0  0  0  0
    9.7402  -11.4249   30.3853 C   0  0  0  0  0  0  0  0  0  0  0  0
    9.0943  -10.6662   29.0009 S   0  0  0  0  0  0  0  0  0  0  0  0
    7.6976   -8.0871   27.9604 N   0  0  0  0  0  0  0  0  0  0  0  0
    7.2692   -5.7576   25.5845 C   0  0  0  0  0  0  0  0  0  0  0  0
    7.2700   -6.9301   24.6029 C   0  0  0  0  0  0  0  0  0  0  0  0
    6.1399   -7.5925   25.3659 C   0  0  0  0  0  0  0  0  0  0  0  0
    0.2916   -5.9931   30.7963 C   0  0  0  0  0  0  0  0  0  0  0  0
   -0.5779   -6.6953   30.0951 N   0  0  0  0  0  0  0  0  0  0  0  0
   -1.1826   -7.6194   30.9052 N   0  0  0  0  0  0  0  0  0  0  0  0
   -0.6691   -7.4757   32.1018 C   0  0  0  0  0  0  0  0  0  0  0  0
    0.2870   -6.4925   32.1033 N   0  0  0  0  0  0  0  0  0  0  0  0
    0.4906   -7.4917   36.3390 H   0  0  0  0  0  0  0  0  0  0  0  0
    0.0163   -8.5432   38.9404 H   0  0  0  0  0  0  0  0  0  0  0  0
    3.4735   -7.3699   40.6454 H   0  0  0  0  0  0  0  0  0  0  0  0
    3.7332   -6.4690   38.2654 H   0  0  0  0  0  0  0  0  0  0  0  0
    0.4168   -7.2284   34.6548 H   0  0  0  0  0  0  0  0  0  0  0  0
    2.7339   -4.6593   33.4904 H   0  0  0  0  0  0  0  0  0  0  0  0
    2.7038   -3.6657   31.2973 H   0  0  0  0  0  0  0  0  0  0  0  0
    0.4482   -4.4332   28.4069 H   0  0  0  0  0  0  0  0  0  0  0  0
    0.8009   -3.0954   29.3955 H   0  0  0  0  0  0  0  0  0  0  0  0
    2.3014   -2.8481   27.8087 H   0  0  0  0  0  0  0  0  0  0  0  0
    3.4656   -6.3734   29.0298 H   0  0  0  0  0  0  0  0  0  0  0  0
    4.2247   -6.3195   26.3337 H   0  0  0  0  0  0  0  0  0  0  0  0
    8.4817   -8.7746   32.0069 H   0  0  0  0  0  0  0  0  0  0  0  0
    9.8307  -11.0033   32.5125 H   0  0  0  0  0  0  0  0  0  0  0  0
   10.2550  -12.3731   30.3024 H   0  0  0  0  0  0  0  0  0  0  0  0
    8.1457   -8.6350   27.2416 H   0  0  0  0  0  0  0  0  0  0  0  0
    6.8358   -4.8385   25.1750 H   0  0  0  0  0  0  0  0  0  0  0  0
    8.2398   -5.5373   26.0388 H   0  0  0  0  0  0  0  0  0  0  0  0
    7.0036   -6.6521   23.5835 H   0  0  0  0  0  0  0  0  0  0  0  0
    8.1872   -7.5231   24.6335 H   0  0  0  0  0  0  0  0  0  0  0  0
    5.1852   -7.5680   24.8250 H   0  0  0  0  0  0  0  0  0  0  0  0
    6.3300   -8.6328   25.6473 H   0  0  0  0  0  0  0  0  0  0  0  0
   -0.9394   -8.0568   32.9717 H   0  0  0  0  0  0  0  0  0  0  0  0
  1  2  2  0
  2  3  1  0
  3  4  1  0
  4  5  1  0
  5  6  2  0
  6  7  1  0
  7  8  1  0
  2  9  1  0
  9 10  1  0
 10 11  2  0
 11 12  1  0
 12 13  2  0
 13 14  1  0
 14 15  1  0
 15 16  1  0
 16 17  1  0
 16 18  1  0
 16 19  1  0
 19 20  2  0
 19 21  1  0
 21 22  1  0
 22 23  1  0
 23 24  2  0
 24 25  1  0
 25 26  2  0
 26 27  1  0
 27 28  2  0
 28 29  1  0
 29 30  2  0
 30 31  1  0
 26 32  1  0
 22 33  1  0
 33 34  1  0
 34 35  1  0
 13 36  1  0
 36 37  2  0
 37 38  1  0
 38 39  2  0
 39 40  1  0
  8  4  2  0
 40 10  1  0
 35 22  1  0
 40 36  1  0
 32 23  1  0
 31 27  1  0
  3 41  1  0
  5 42  1  0
  7 43  1  0
  8 44  1  0
  9 45  1  0
 11 46  1  0
 12 47  1  0
 14 48  1  0
 14 49  1  0
 15 50  1  0
 17 51  1  0
 21 52  1  0
 28 53  1  0
 29 54  1  0
 30 55  1  0
 32 56  1  0
 33 57  1  0
 33 58  1  0
 34 59  1  0
 34 60  1  0
 35 61  1  0
 35 62  1  0
 39 63  1  0
M  END
>  <Energy>  (410) 
124.01165392130855

>  <compound_id>  (410) 
2600

>  <target_id>  (410) 
1

>  <reference_id>  (410) 
175

>  <inspiration_ids>  (410) 
[175, 147]

>  <energy_score>  (410) 
-25.459146295438586

>  <distance_score>  (410) 
5.332187228013691

>  <path>  (410) 
/opt/xchem-fragalysis-2/maxwin/BulkDock/SCRATCH/505736/C2600-P175/C2600-P175.minimised.mol

>  <scratch_subdir>  (410) 
/opt/xchem-fragalysis-2/maxwin/BulkDock/SCRATCH/505736/C2600-P175

>  <fragmenstein_runtime>  (410) 
17.394558668136597

>  <fragmenstein_outcome>  (410) 
too moved

>  <fragmenstein_mode>  (410) 
expansion

>  <fragmenstein_error>  (410) 


$$$$
C2600-P147
     RDKit          3D

 63 68  0  0  0  0  0  0  0  0999 V2000
    0.6761   -7.1300   35.2210 O   0  0  0  0  0  0  0  0  0  0  0  0
    0.6759   -5.9892   35.5000 C   0  0  0  0  0  0  0  0  0  0  0  0
    0.4798   -5.3201   36.8224 N   0  0  0  0  0  0  0  0  0  0  0  0
    0.3382   -5.8454   38.0720 C   0  0  0  0  0  0  0  0  0  0  0  0
    0.4463   -7.1817   38.5017 C   0  0  0  0  0  0  0  0  0  0  0  0
    0.1968   -7.3130   39.8087 N   0  0  0  0  0  0  0  0  0  0  0  0
   -0.0669   -6.0562   40.2072 N   0  0  0  0  0  0  0  0  0  0  0  0
    0.0346   -5.1332   39.2039 C   0  0  0  0  0  0  0  0  0  0  0  0
    0.8124   -4.7772   34.6210 N   0  0  0  0  0  0  0  0  0  0  0  0
    1.0628   -4.6705   33.2779 C   0  0  0  0  0  0  0  0  0  0  0  0
    1.7702   -3.6152   32.8243 C   0  0  0  0  0  0  0  0  0  0  0  0
    2.1398   -3.5234   31.4180 C   0  0  0  0  0  0  0  0  0  0  0  0
    1.7412   -4.4318   30.4999 C   0  0  0  0  0  0  0  0  0  0  0  0
    2.1645   -4.3958   29.0317 C   0  0  0  0  0  0  0  0  0  0  0  0
    3.3948   -3.6914   28.6002 N   0  0  0  0  0  0  0  0  0  0  0  0
    4.0699   -4.3441   27.4412 C   0  0  0  0  0  0  0  0  0  0  0  0
    2.9952   -5.0349   26.1848 S   0  0  0  0  0  0  0  0  0  0  0  0
    5.0055   -3.1144   26.5007 Cl  0  0  0  0  0  0  0  0  0  0  0  0
    4.9169   -5.5959   27.9295 C   0  0  0  0  0  0  0  0  0  0  0  0
    4.3274   -6.4126   28.5890 O   0  0  0  0  0  0  0  0  0  0  0  0
    6.2507   -5.5976   27.4189 N   0  0  0  0  0  0  0  0  0  0  0  0
    7.2795   -6.6183   27.4513 C   0  0  0  0  0  0  0  0  0  0  0  0
    7.7372   -6.9081   28.9018 C   0  0  0  0  0  0  0  0  0  0  0  0
    7.4204   -6.2119   29.9726 N   0  0  0  0  0  0  0  0  0  0  0  0
    8.1259   -6.7401   31.0345 N   0  0  0  0  0  0  0  0  0  0  0  0
    8.8734   -7.7202   30.5728 C   0  0  0  0  0  0  0  0  0  0  0  0
    9.8040   -8.5136   31.3060 C   0  0  0  0  0  0  0  0  0  0  0  0
    9.9101   -8.6114   32.6771 C   0  0  0  0  0  0  0  0  0  0  0  0
   10.9081   -9.5470   33.0770 C   0  0  0  0  0  0  0  0  0  0  0  0
   11.5479  -10.1149   31.9981 C   0  0  0  0  0  0  0  0  0  0  0  0
   10.9511   -9.5171   30.5140 S   0  0  0  0  0  0  0  0  0  0  0  0
    8.6064   -7.8953   29.2491 N   0  0  0  0  0  0  0  0  0  0  0  0
    8.4533   -6.4552   26.4732 C   0  0  0  0  0  0  0  0  0  0  0  0
    7.6438   -7.2749   25.4489 C   0  0  0  0  0  0  0  0  0  0  0  0
    6.8578   -7.8636   26.6249 C   0  0  0  0  0  0  0  0  0  0  0  0
    0.8823   -5.4961   30.9693 C   0  0  0  0  0  0  0  0  0  0  0  0
    0.2674   -6.4635   30.3169 N   0  0  0  0  0  0  0  0  0  0  0  0
   -0.4568   -7.1963   31.2180 N   0  0  0  0  0  0  0  0  0  0  0  0
   -0.2563   -6.6692   32.4054 C   0  0  0  0  0  0  0  0  0  0  0  0
    0.6005   -5.5989   32.3268 N   0  0  0  0  0  0  0  0  0  0  0  0
    0.4576   -4.3284   36.6920 H   0  0  0  0  0  0  0  0  0  0  0  0
    0.6897   -8.0611   37.9183 H   0  0  0  0  0  0  0  0  0  0  0  0
   -0.3134   -5.9014   41.1796 H   0  0  0  0  0  0  0  0  0  0  0  0
   -0.1555   -4.0869   39.3904 H   0  0  0  0  0  0  0  0  0  0  0  0
    0.8546   -3.9541   35.1939 H   0  0  0  0  0  0  0  0  0  0  0  0
    2.1571   -2.8440   33.4836 H   0  0  0  0  0  0  0  0  0  0  0  0
    2.7741   -2.6866   31.1341 H   0  0  0  0  0  0  0  0  0  0  0  0
    2.2344   -5.4533   28.7742 H   0  0  0  0  0  0  0  0  0  0  0  0
    1.3226   -3.9763   28.4678 H   0  0  0  0  0  0  0  0  0  0  0  0
    4.0706   -3.7188   29.3625 H   0  0  0  0  0  0  0  0  0  0  0  0
    2.6975   -6.1668   26.8391 H   0  0  0  0  0  0  0  0  0  0  0  0
    6.3808   -4.7737   26.8301 H   0  0  0  0  0  0  0  0  0  0  0  0
    9.2829   -8.0517   33.3624 H   0  0  0  0  0  0  0  0  0  0  0  0
   11.1461   -9.7880   34.1063 H   0  0  0  0  0  0  0  0  0  0  0  0
   12.3431  -10.8482   32.0128 H   0  0  0  0  0  0  0  0  0  0  0  0
    9.0321   -8.5804   28.6431 H   0  0  0  0  0  0  0  0  0  0  0  0
    8.7162   -5.4248   26.2439 H   0  0  0  0  0  0  0  0  0  0  0  0
    9.3837   -6.9609   26.7635 H   0  0  0  0  0  0  0  0  0  0  0  0
    7.0287   -6.6820   24.7648 H   0  0  0  0  0  0  0  0  0  0  0  0
    8.2145   -8.0143   24.8891 H   0  0  0  0  0  0  0  0  0  0  0  0
    5.7895   -7.9683   26.4215 H   0  0  0  0  0  0  0  0  0  0  0  0
    7.2486   -8.8251   26.9759 H   0  0  0  0  0  0  0  0  0  0  0  0
   -0.7201   -7.0081   33.3190 H   0  0  0  0  0  0  0  0  0  0  0  0
  1  2  2  0
  2  3  1  0
  3  4  1  0
  4  5  1  0
  5  6  2  0
  6  7  1  0
  7  8  1  0
  2  9  1  0
  9 10  1  0
 10 11  2  0
 11 12  1  0
 12 13  2  0
 13 14  1  0
 14 15  1  0
 15 16  1  0
 16 17  1  0
 16 18  1  0
 16 19  1  0
 19 20  2  0
 19 21  1  0
 21 22  1  0
 22 23  1  0
 23 24  2  0
 24 25  1  0
 25 26  2  0
 26 27  1  0
 27 28  2  0
 28 29  1  0
 29 30  2  0
 30 31  1  0
 26 32  1  0
 22 33  1  0
 33 34  1  0
 34 35  1  0
 13 36  1  0
 36 37  2  0
 37 38  1  0
 38 39  2  0
 39 40  1  0
  8  4  2  0
 40 10  1  0
 35 22  1  0
 40 36  1  0
 32 23  1  0
 31 27  1  0
  3 41  1  0
  5 42  1  0
  7 43  1  0
  8 44  1  0
  9 45  1  0
 11 46  1  0
 12 47  1  0
 14 48  1  0
 14 49  1  0
 15 50  1  0
 17 51  1  0
 21 52  1  0
 28 53  1  0
 29 54  1  0
 30 55  1  0
 32 56  1  0
 33 57  1  0
 33 58  1  0
 34 59  1  0
 34 60  1  0
 35 61  1  0
 35 62  1  0
 39 63  1  0
M  END
>  <Energy>  (411) 
72.410788962796829

>  <compound_id>  (411) 
2600

>  <target_id>  (411) 
1

>  <reference_id>  (411) 
147

>  <inspiration_ids>  (411) 
[175, 147]

>  <energy_score>  (411) 
-84.44153265011164

>  <distance_score>  (411) 
5.743580481421188

>  <path>  (411) 
/opt/xchem-fragalysis-2/maxwin/BulkDock/SCRATCH/505736/C2600-P147/C2600-P147.minimised.mol

>  <scratch_subdir>  (411) 
/opt/xchem-fragalysis-2/maxwin/BulkDock/SCRATCH/505736/C2600-P147

>  <fragmenstein_runtime>  (411) 
31.18810772895813

>  <fragmenstein_outcome>  (411) 
too moved

>  <fragmenstein_mode>  (411) 
expansion

>  <fragmenstein_error>  (411) 


$$$$
C2601-P175
     RDKit          3D

 73 79  0  0  0  0  0  0  0  0999 V2000
    8.4287   -6.3470   25.5352 C   0  0  0  0  0  0  0  0  0  0  0  0
    7.4704   -6.0925   24.6207 C   0  0  0  0  0  0  0  0  0  0  0  0
    6.6885   -7.1033   23.8419 C   0  0  0  0  0  0  0  0  0  0  0  0
    6.5653   -6.9295   21.9077 C   0  0  0  0  0  0  0  0  0  0  0  0
    6.8064   -7.4469   19.9832 N   0  0  0  0  0  0  0  0  0  0  0  0
    7.1962   -6.0838   18.7761 C   0  0  0  0  0  0  0  0  0  0  0  0
    5.8766   -4.9893   18.2592 S   0  0  0  0  0  0  0  0  0  0  0  0
    7.4685   -6.7791   16.8719 Cl  0  0  0  0  0  0  0  0  0  0  0  0
    8.9207   -5.6683   18.7220 C   0  0  0  0  0  0  0  0  0  0  0  0
    9.3151   -4.5329   18.7612 O   0  0  0  0  0  0  0  0  0  0  0  0
    9.6845   -6.9721   18.7259 N   0  0  0  0  0  0  0  0  0  0  0  0
   11.1283   -7.2442   18.8763 C   0  0  0  0  0  0  0  0  0  0  0  0
   11.6972   -7.4333   20.3741 C   0  0  0  0  0  0  0  0  0  0  0  0
   12.5326   -6.5781   20.9317 N   0  0  0  0  0  0  0  0  0  0  0  0
   12.7989   -6.9911   22.2182 N   0  0  0  0  0  0  0  0  0  0  0  0
   12.1039   -8.0836   22.4552 C   0  0  0  0  0  0  0  0  0  0  0  0
   11.8653   -8.5816   23.7837 C   0  0  0  0  0  0  0  0  0  0  0  0
   12.3563   -8.0174   24.9519 C   0  0  0  0  0  0  0  0  0  0  0  0
   11.8821   -8.6594   26.1294 C   0  0  0  0  0  0  0  0  0  0  0  0
   11.0407   -9.6985   25.8212 C   0  0  0  0  0  0  0  0  0  0  0  0
   10.8349   -9.8940   24.1370 S   0  0  0  0  0  0  0  0  0  0  0  0
   11.5244   -8.4795   21.2634 N   0  0  0  0  0  0  0  0  0  0  0  0
   12.0073   -6.3198   17.9961 C   0  0  0  0  0  0  0  0  0  0  0  0
   12.8112   -7.5702   17.5952 C   0  0  0  0  0  0  0  0  0  0  0  0
   11.5757   -8.4140   17.9570 C   0  0  0  0  0  0  0  0  0  0  0  0
    5.5055   -7.2463   24.8285 N   0  0  0  0  0  0  0  0  0  0  0  0
    4.5855   -6.3438   25.4497 C   0  0  0  0  0  0  0  0  0  0  0  0
    4.7087   -4.6382   25.8372 S   0  0  0  0  0  0  0  0  0  0  0  0
    4.8369   -4.6477   27.5874 C   0  0  0  0  0  0  0  0  0  0  0  0
    6.0364   -4.4070   28.1611 C   0  0  0  0  0  0  0  0  0  0  0  0
    6.1552   -4.3215   29.6102 C   0  0  0  0  0  0  0  0  0  0  0  0
    5.0936   -4.4956   30.4157 C   0  0  0  0  0  0  0  0  0  0  0  0
    3.8293   -4.7761   29.8425 C   0  0  0  0  0  0  0  0  0  0  0  0
    2.6618   -5.0588   30.3786 N   0  0  0  0  0  0  0  0  0  0  0  0
    1.7496   -5.1202   29.3591 N   0  0  0  0  0  0  0  0  0  0  0  0
    2.3931   -4.8816   28.2368 C   0  0  0  0  0  0  0  0  0  0  0  0
    3.7344   -4.7811   28.4538 N   0  0  0  0  0  0  0  0  0  0  0  0
    3.6746   -7.0538   26.0854 N   0  0  0  0  0  0  0  0  0  0  0  0
    4.2602   -8.2340   26.3605 N   0  0  0  0  0  0  0  0  0  0  0  0
    5.5188   -8.1561   25.9304 C   0  0  0  0  0  0  0  0  0  0  0  0
    6.6380   -8.5322   26.8337 C   0  0  0  0  0  0  0  0  0  0  0  0
    6.6845   -7.9867   28.1386 C   0  0  0  0  0  0  0  0  0  0  0  0
    7.5218   -8.5166   29.1203 C   0  0  0  0  0  0  0  0  0  0  0  0
    8.2846   -9.6123   28.7794 C   0  0  0  0  0  0  0  0  0  0  0  0
    8.2795  -10.1667   27.5434 N   0  0  0  0  0  0  0  0  0  0  0  0
    7.4659   -9.6187   26.5967 C   0  0  0  0  0  0  0  0  0  0  0  0
    8.8756   -5.5348   26.1042 H   0  0  0  0  0  0  0  0  0  0  0  0
    8.8337   -7.3346   25.7172 H   0  0  0  0  0  0  0  0  0  0  0  0
    7.0944   -5.0830   24.5028 H   0  0  0  0  0  0  0  0  0  0  0  0
    7.2603   -8.0225   24.0049 H   0  0  0  0  0  0  0  0  0  0  0  0
    5.6032   -7.3655   22.1048 H   0  0  0  0  0  0  0  0  0  0  0  0
    6.8385   -5.8804   21.9399 H   0  0  0  0  0  0  0  0  0  0  0  0
    7.8147   -7.4919   19.9867 H   0  0  0  0  0  0  0  0  0  0  0  0
    6.6203   -3.8741   18.3147 H   0  0  0  0  0  0  0  0  0  0  0  0
    9.0344   -7.7402   18.5984 H   0  0  0  0  0  0  0  0  0  0  0  0
   13.0236   -7.1612   24.9550 H   0  0  0  0  0  0  0  0  0  0  0  0
   12.1415   -8.3729   27.1414 H   0  0  0  0  0  0  0  0  0  0  0  0
   10.5360  -10.3524   26.5131 H   0  0  0  0  0  0  0  0  0  0  0  0
   10.9586   -9.2989   21.1226 H   0  0  0  0  0  0  0  0  0  0  0  0
   12.5792   -5.5370   18.5022 H   0  0  0  0  0  0  0  0  0  0  0  0
   11.4835   -5.8598   17.1484 H   0  0  0  0  0  0  0  0  0  0  0  0
   13.6831   -7.7618   18.2313 H   0  0  0  0  0  0  0  0  0  0  0  0
   13.1246   -7.6154   16.5490 H   0  0  0  0  0  0  0  0  0  0  0  0
   11.7907   -9.3734   18.4366 H   0  0  0  0  0  0  0  0  0  0  0  0
   10.9152   -8.6019   17.1009 H   0  0  0  0  0  0  0  0  0  0  0  0
    6.9379   -4.2421   27.5754 H   0  0  0  0  0  0  0  0  0  0  0  0
    7.1346   -4.0942   30.0233 H   0  0  0  0  0  0  0  0  0  0  0  0
    5.1763   -4.4181   31.4944 H   0  0  0  0  0  0  0  0  0  0  0  0
    1.9653   -4.7711   27.2565 H   0  0  0  0  0  0  0  0  0  0  0  0
    6.0022   -7.1894   28.4105 H   0  0  0  0  0  0  0  0  0  0  0  0
    7.5520   -8.1071   30.1221 H   0  0  0  0  0  0  0  0  0  0  0  0
    8.9389  -10.0929   29.5015 H   0  0  0  0  0  0  0  0  0  0  0  0
    7.4396  -10.1527   25.6500 H   0  0  0  0  0  0  0  0  0  0  0  0
  1  2  2  0
  2  3  1  0
  3  4  1  0
  4  5  1  0
  5  6  1  0
  6  7  1  0
  6  8  1  0
  6  9  1  0
  9 10  2  0
  9 11  1  0
 11 12  1  0
 12 13  1  0
 13 14  2  0
 14 15  1  0
 15 16  2  0
 16 17  1  0
 17 18  2  0
 18 19  1  0
 19 20  2  0
 20 21  1  0
 16 22  1  0
 12 23  1  0
 23 24  1  0
 24 25  1  0
  3 26  1  0
 26 27  1  0
 27 28  1  0
 28 29  1  0
 29 30  2  0
 30 31  1  0
 31 32  2  0
 32 33  1  0
 33 34  2  0
 34 35  1  0
 35 36  2  0
 36 37  1  0
 27 38  2  0
 38 39  1  0
 39 40  2  0
 40 41  1  0
 41 42  2  0
 42 43  1  0
 43 44  2  0
 44 45  1  0
 45 46  2  0
 25 12  1  0
 40 26  1  0
 46 41  1  0
 22 13  1  0
 37 29  1  0
 21 17  1  0
 37 33  1  0
  1 47  1  0
  1 48  1  0
  2 49  1  0
  3 50  1  0
  4 51  1  0
  4 52  1  0
  5 53  1  0
  7 54  1  0
 11 55  1  0
 18 56  1  0
 19 57  1  0
 20 58  1  0
 22 59  1  0
 23 60  1  0
 23 61  1  0
 24 62  1  0
 24 63  1  0
 25 64  1  0
 25 65  1  0
 30 66  1  0
 31 67  1  0
 32 68  1  0
 36 69  1  0
 42 70  1  0
 43 71  1  0
 44 72  1  0
 46 73  1  0
M  END
>  <Energy>  (412) 
464.8941953727462

>  <compound_id>  (412) 
2601

>  <target_id>  (412) 
1

>  <reference_id>  (412) 
175

>  <inspiration_ids>  (412) 
[175, 148]

>  <energy_score>  (412) 
234.42436435346588

>  <distance_score>  (412) 
9.349690237561218

>  <path>  (412) 
/opt/xchem-fragalysis-2/maxwin/BulkDock/SCRATCH/505736/C2601-P175/C2601-P175.minimised.mol

>  <scratch_subdir>  (412) 
/opt/xchem-fragalysis-2/maxwin/BulkDock/SCRATCH/505736/C2601-P175

>  <fragmenstein_runtime>  (412) 
56.731834173202515

>  <fragmenstein_outcome>  (412) 
too moved

>  <fragmenstein_mode>  (412) 
expansion

>  <fragmenstein_error>  (412) 


$$$$
C2601-P148
     RDKit          3D

 73 79  0  0  0  0  0  0  0  0999 V2000
    0.2539   -6.4666   30.4549 C   0  0  0  0  0  0  0  0  0  0  0  0
    0.7581   -5.3580   29.8916 C   0  0  0  0  0  0  0  0  0  0  0  0
    2.2289   -4.9520   29.9616 C   0  0  0  0  0  0  0  0  0  0  0  0
    2.7511   -4.3275   28.5202 C   0  0  0  0  0  0  0  0  0  0  0  0
    1.9818   -4.6447   27.2233 N   0  0  0  0  0  0  0  0  0  0  0  0
    2.6006   -5.1986   25.9244 C   0  0  0  0  0  0  0  0  0  0  0  0
    0.8348   -5.2175   24.2650 S   0  0  0  0  0  0  0  0  0  0  0  0
    3.8818   -3.8788   25.7015 Cl  0  0  0  0  0  0  0  0  0  0  0  0
    3.4644   -6.6264   26.3149 C   0  0  0  0  0  0  0  0  0  0  0  0
    2.9394   -7.6925   26.4442 O   0  0  0  0  0  0  0  0  0  0  0  0
    4.8347   -6.2234   26.5278 N   0  0  0  0  0  0  0  0  0  0  0  0
    6.0060   -6.9926   26.8667 C   0  0  0  0  0  0  0  0  0  0  0  0
    6.2870   -7.0720   28.3816 C   0  0  0  0  0  0  0  0  0  0  0  0
    5.9911   -6.1367   29.2584 N   0  0  0  0  0  0  0  0  0  0  0  0
    6.8322   -6.3194   30.3398 N   0  0  0  0  0  0  0  0  0  0  0  0
    7.5829   -7.3779   30.1019 C   0  0  0  0  0  0  0  0  0  0  0  0
    8.6419   -7.8978   30.9037 C   0  0  0  0  0  0  0  0  0  0  0  0
    8.8928   -7.6303   32.2323 C   0  0  0  0  0  0  0  0  0  0  0  0
   10.0055   -8.3691   32.7330 C   0  0  0  0  0  0  0  0  0  0  0  0
   10.5854   -9.1560   31.7634 C   0  0  0  0  0  0  0  0  0  0  0  0
    9.8002   -8.9912   30.2566 S   0  0  0  0  0  0  0  0  0  0  0  0
    7.1721   -7.9501   28.9349 N   0  0  0  0  0  0  0  0  0  0  0  0
    7.2378   -6.3720   26.1803 C   0  0  0  0  0  0  0  0  0  0  0  0
    7.1658   -7.4699   25.1327 C   0  0  0  0  0  0  0  0  0  0  0  0
    6.2153   -8.2573   26.0305 C   0  0  0  0  0  0  0  0  0  0  0  0
    2.5722   -4.2659   31.2914 N   0  0  0  0  0  0  0  0  0  0  0  0
    1.5959   -3.4389   31.8512 C   0  0  0  0  0  0  0  0  0  0  0  0
    1.5339   -1.7449   31.6402 S   0  0  0  0  0  0  0  0  0  0  0  0
    0.1042   -1.7337   30.6786 C   0  0  0  0  0  0  0  0  0  0  0  0
    0.1991   -1.3623   29.3866 C   0  0  0  0  0  0  0  0  0  0  0  0
   -0.9836   -1.3637   28.5524 C   0  0  0  0  0  0  0  0  0  0  0  0
   -2.1817   -1.7305   29.0344 C   0  0  0  0  0  0  0  0  0  0  0  0
   -2.2994   -2.1206   30.3901 C   0  0  0  0  0  0  0  0  0  0  0  0
   -3.3279   -2.5316   31.0955 N   0  0  0  0  0  0  0  0  0  0  0  0
   -2.8817   -2.8074   32.3539 N   0  0  0  0  0  0  0  0  0  0  0  0
   -1.6037   -2.5087   32.4096 C   0  0  0  0  0  0  0  0  0  0  0  0
   -1.1561   -2.1053   31.1782 N   0  0  0  0  0  0  0  0  0  0  0  0
    0.8651   -4.1374   32.6931 N   0  0  0  0  0  0  0  0  0  0  0  0
    1.5878   -5.2507   32.9923 N   0  0  0  0  0  0  0  0  0  0  0  0
    2.7958   -5.0071   32.5045 C   0  0  0  0  0  0  0  0  0  0  0  0
    3.9972   -5.1376   33.3566 C   0  0  0  0  0  0  0  0  0  0  0  0
    3.8546   -5.6910   34.6495 C   0  0  0  0  0  0  0  0  0  0  0  0
    4.9605   -5.9165   35.4660 C   0  0  0  0  0  0  0  0  0  0  0  0
    6.1991   -5.5672   34.9711 C   0  0  0  0  0  0  0  0  0  0  0  0
    6.3859   -5.0142   33.7511 N   0  0  0  0  0  0  0  0  0  0  0  0
    5.2872   -4.8002   32.9753 C   0  0  0  0  0  0  0  0  0  0  0  0
    0.8490   -7.1240   31.0732 H   0  0  0  0  0  0  0  0  0  0  0  0
   -0.7915   -6.7229   30.3948 H   0  0  0  0  0  0  0  0  0  0  0  0
    0.0824   -4.6904   29.3575 H   0  0  0  0  0  0  0  0  0  0  0  0
    2.7959   -5.8795   30.0146 H   0  0  0  0  0  0  0  0  0  0  0  0
    3.8023   -4.6100   28.4225 H   0  0  0  0  0  0  0  0  0  0  0  0
    2.7284   -3.2367   28.6224 H   0  0  0  0  0  0  0  0  0  0  0  0
    1.2860   -5.3446   27.4923 H   0  0  0  0  0  0  0  0  0  0  0  0
    1.2853   -4.2385   23.4328 H   0  0  0  0  0  0  0  0  0  0  0  0
    4.9078   -5.2180   26.4003 H   0  0  0  0  0  0  0  0  0  0  0  0
    8.2926   -6.9458   32.8229 H   0  0  0  0  0  0  0  0  0  0  0  0
   10.3654   -8.3175   33.7537 H   0  0  0  0  0  0  0  0  0  0  0  0
   11.4420   -9.8089   31.8667 H   0  0  0  0  0  0  0  0  0  0  0  0
    7.6167   -8.7382   28.4878 H   0  0  0  0  0  0  0  0  0  0  0  0
    7.0571   -5.3541   25.8316 H   0  0  0  0  0  0  0  0  0  0  0  0
    8.1747   -6.3800   26.7502 H   0  0  0  0  0  0  0  0  0  0  0  0
    6.7346   -7.1453   24.1840 H   0  0  0  0  0  0  0  0  0  0  0  0
    8.1188   -7.9732   24.9966 H   0  0  0  0  0  0  0  0  0  0  0  0
    6.7134   -9.0963   26.5269 H   0  0  0  0  0  0  0  0  0  0  0  0
    5.3242   -8.6420   25.5289 H   0  0  0  0  0  0  0  0  0  0  0  0
    1.1327   -1.0577   28.9212 H   0  0  0  0  0  0  0  0  0  0  0  0
   -0.8773   -1.0627   27.5151 H   0  0  0  0  0  0  0  0  0  0  0  0
   -3.0640   -1.7455   28.4038 H   0  0  0  0  0  0  0  0  0  0  0  0
   -0.9840   -2.5745   33.2923 H   0  0  0  0  0  0  0  0  0  0  0  0
    2.8675   -5.9574   35.0252 H   0  0  0  0  0  0  0  0  0  0  0  0
    4.8527   -6.3431   36.4566 H   0  0  0  0  0  0  0  0  0  0  0  0
    7.1018   -5.7130   35.5575 H   0  0  0  0  0  0  0  0  0  0  0  0
    5.5079   -4.3753   31.9996 H   0  0  0  0  0  0  0  0  0  0  0  0
  1  2  2  0
  2  3  1  0
  3  4  1  0
  4  5  1  0
  5  6  1  0
  6  7  1  0
  6  8  1  0
  6  9  1  0
  9 10  2  0
  9 11  1  0
 11 12  1  0
 12 13  1  0
 13 14  2  0
 14 15  1  0
 15 16  2  0
 16 17  1  0
 17 18  2  0
 18 19  1  0
 19 20  2  0
 20 21  1  0
 16 22  1  0
 12 23  1  0
 23 24  1  0
 24 25  1  0
  3 26  1  0
 26 27  1  0
 27 28  1  0
 28 29  1  0
 29 30  2  0
 30 31  1  0
 31 32  2  0
 32 33  1  0
 33 34  2  0
 34 35  1  0
 35 36  2  0
 36 37  1  0
 27 38  2  0
 38 39  1  0
 39 40  2  0
 40 41  1  0
 41 42  2  0
 42 43  1  0
 43 44  2  0
 44 45  1  0
 45 46  2  0
 25 12  1  0
 40 26  1  0
 46 41  1  0
 22 13  1  0
 37 29  1  0
 21 17  1  0
 37 33  1  0
  1 47  1  0
  1 48  1  0
  2 49  1  0
  3 50  1  0
  4 51  1  0
  4 52  1  0
  5 53  1  0
  7 54  1  0
 11 55  1  0
 18 56  1  0
 19 57  1  0
 20 58  1  0
 22 59  1  0
 23 60  1  0
 23 61  1  0
 24 62  1  0
 24 63  1  0
 25 64  1  0
 25 65  1  0
 30 66  1  0
 31 67  1  0
 32 68  1  0
 36 69  1  0
 42 70  1  0
 43 71  1  0
 44 72  1  0
 46 73  1  0
M  END
>  <Energy>  (413) 
287.50709077535976

>  <compound_id>  (413) 
2601

>  <target_id>  (413) 
1

>  <reference_id>  (413) 
148

>  <inspiration_ids>  (413) 
[175, 148]

>  <energy_score>  (413) 
57.0372597560779

>  <distance_score>  (413) 
5.873953339630427

>  <path>  (413) 
/opt/xchem-fragalysis-2/maxwin/BulkDock/SCRATCH/505736/C2601-P148/C2601-P148.minimised.mol

>  <scratch_subdir>  (413) 
/opt/xchem-fragalysis-2/maxwin/BulkDock/SCRATCH/505736/C2601-P148

>  <fragmenstein_runtime>  (413) 
37.165483713150024

>  <fragmenstein_outcome>  (413) 
too moved

>  <fragmenstein_mode>  (413) 
expansion

>  <fragmenstein_error>  (413) 


$$$$
C2348-P175
     RDKit          3D

 70 76  0  0  0  0  0  0  0  0999 V2000
    3.5064   -6.7262   28.5634 O   0  0  0  0  0  0  0  0  0  0  0  0
    4.1242   -5.7452   28.2429 C   0  0  0  0  0  0  0  0  0  0  0  0
    5.3886   -5.6110   27.5456 N   0  0  0  0  0  0  0  0  0  0  0  0
    6.3444   -6.6120   27.1052 C   0  0  0  0  0  0  0  0  0  0  0  0
    7.0223   -7.2098   28.3620 C   0  0  0  0  0  0  0  0  0  0  0  0
    7.1240   -6.5515   29.4990 N   0  0  0  0  0  0  0  0  0  0  0  0
    7.7798   -7.3558   30.3924 N   0  0  0  0  0  0  0  0  0  0  0  0
    8.0612   -8.4892   29.7857 C   0  0  0  0  0  0  0  0  0  0  0  0
    8.7250   -9.6020   30.3797 C   0  0  0  0  0  0  0  0  0  0  0  0
    9.0586   -9.7464   31.7114 C   0  0  0  0  0  0  0  0  0  0  0  0
    9.7067  -10.9876   31.9779 C   0  0  0  0  0  0  0  0  0  0  0  0
    9.8517  -11.7470   30.8389 C   0  0  0  0  0  0  0  0  0  0  0  0
    9.2181  -10.9565   29.4642 S   0  0  0  0  0  0  0  0  0  0  0  0
    7.6009   -8.4342   28.4987 N   0  0  0  0  0  0  0  0  0  0  0  0
    7.3459   -6.0694   26.0580 C   0  0  0  0  0  0  0  0  0  0  0  0
    6.3626   -6.5440   24.9725 C   0  0  0  0  0  0  0  0  0  0  0  0
    5.8331   -7.5666   26.0019 C   0  0  0  0  0  0  0  0  0  0  0  0
    3.5369   -4.2922   28.5109 C   0  0  0  0  0  0  0  0  0  0  0  0
    4.8236   -3.0042   28.6519 S   0  0  0  0  0  0  0  0  0  0  0  0
    2.6420   -3.9137   26.9730 Cl  0  0  0  0  0  0  0  0  0  0  0  0
    2.6530   -4.1297   29.6877 N   0  0  0  0  0  0  0  0  0  0  0  0
    2.9199   -4.6026   30.9843 C   0  0  0  0  0  0  0  0  0  0  0  0
    2.8969   -3.8993   32.1340 C   0  0  0  0  0  0  0  0  0  0  0  0
    3.1339   -4.2711   33.6029 C   0  0  0  0  0  0  0  0  0  0  0  0
    2.7509   -5.5931   34.0910 N   0  0  0  0  0  0  0  0  0  0  0  0
    1.4866   -6.0621   34.3776 C   0  0  0  0  0  0  0  0  0  0  0  0
    0.0443   -5.1273   34.5771 S   0  0  0  0  0  0  0  0  0  0  0  0
   -0.3224   -4.9817   32.9035 C   0  0  0  0  0  0  0  0  0  0  0  0
   -0.3654   -3.7533   32.3487 C   0  0  0  0  0  0  0  0  0  0  0  0
   -0.4474   -3.6259   30.9089 C   0  0  0  0  0  0  0  0  0  0  0  0
   -0.4236   -4.7128   30.1186 C   0  0  0  0  0  0  0  0  0  0  0  0
   -0.4798   -6.0155   30.6953 C   0  0  0  0  0  0  0  0  0  0  0  0
   -0.6410   -7.2135   30.1736 N   0  0  0  0  0  0  0  0  0  0  0  0
   -0.7886   -8.1071   31.2027 N   0  0  0  0  0  0  0  0  0  0  0  0
   -0.6810   -7.4392   32.3309 C   0  0  0  0  0  0  0  0  0  0  0  0
   -0.4764   -6.1053   32.0772 N   0  0  0  0  0  0  0  0  0  0  0  0
    1.5404   -7.3493   34.6174 N   0  0  0  0  0  0  0  0  0  0  0  0
    2.8471   -7.6680   34.7959 N   0  0  0  0  0  0  0  0  0  0  0  0
    3.5560   -6.5540   34.6936 C   0  0  0  0  0  0  0  0  0  0  0  0
    4.8805   -6.4323   35.2847 C   0  0  0  0  0  0  0  0  0  0  0  0
    5.0501   -6.8536   36.6140 C   0  0  0  0  0  0  0  0  0  0  0  0
    6.3086   -6.8368   37.2039 C   0  0  0  0  0  0  0  0  0  0  0  0
    7.3705   -6.3976   36.4375 C   0  0  0  0  0  0  0  0  0  0  0  0
    7.2516   -5.9866   35.1547 N   0  0  0  0  0  0  0  0  0  0  0  0
    6.0150   -6.0243   34.6015 C   0  0  0  0  0  0  0  0  0  0  0  0
    5.6508   -4.6261   27.5197 H   0  0  0  0  0  0  0  0  0  0  0  0
    8.8374   -8.9957   32.4629 H   0  0  0  0  0  0  0  0  0  0  0  0
   10.0437  -11.3065   32.9565 H   0  0  0  0  0  0  0  0  0  0  0  0
   10.2977  -12.7286   30.7482 H   0  0  0  0  0  0  0  0  0  0  0  0
    7.6796   -9.1656   27.8084 H   0  0  0  0  0  0  0  0  0  0  0  0
    8.3122   -6.5875   26.0273 H   0  0  0  0  0  0  0  0  0  0  0  0
    7.5272   -4.9928   26.0961 H   0  0  0  0  0  0  0  0  0  0  0  0
    5.6279   -5.7840   24.6906 H   0  0  0  0  0  0  0  0  0  0  0  0
    6.8172   -6.9546   24.0706 H   0  0  0  0  0  0  0  0  0  0  0  0
    6.3479   -8.5321   25.9411 H   0  0  0  0  0  0  0  0  0  0  0  0
    4.7544   -7.7453   25.9648 H   0  0  0  0  0  0  0  0  0  0  0  0
    4.0286   -1.9955   28.2714 H   0  0  0  0  0  0  0  0  0  0  0  0
    2.3472   -3.1609   29.7047 H   0  0  0  0  0  0  0  0  0  0  0  0
    3.1046   -5.6673   30.9799 H   0  0  0  0  0  0  0  0  0  0  0  0
    2.6999   -2.8308   32.0304 H   0  0  0  0  0  0  0  0  0  0  0  0
    4.1906   -4.1068   33.8286 H   0  0  0  0  0  0  0  0  0  0  0  0
    2.5820   -3.5563   34.2262 H   0  0  0  0  0  0  0  0  0  0  0  0
   -0.2522   -2.8418   32.9289 H   0  0  0  0  0  0  0  0  0  0  0  0
   -0.4635   -2.6296   30.4759 H   0  0  0  0  0  0  0  0  0  0  0  0
   -0.4525   -4.6031   29.0413 H   0  0  0  0  0  0  0  0  0  0  0  0
   -0.7630   -7.8625   33.3240 H   0  0  0  0  0  0  0  0  0  0  0  0
    4.1975   -7.2168   37.1869 H   0  0  0  0  0  0  0  0  0  0  0  0
    6.4546   -7.1647   38.2267 H   0  0  0  0  0  0  0  0  0  0  0  0
    8.3782   -6.3627   36.8425 H   0  0  0  0  0  0  0  0  0  0  0  0
    5.9872   -5.7346   33.5547 H   0  0  0  0  0  0  0  0  0  0  0  0
  1  2  2  0
  2  3  1  0
  3  4  1  0
  4  5  1  0
  5  6  2  0
  6  7  1  0
  7  8  2  0
  8  9  1  0
  9 10  2  0
 10 11  1  0
 11 12  2  0
 12 13  1  0
  8 14  1  0
  4 15  1  0
 15 16  1  0
 16 17  1  0
  2 18  1  0
 18 19  1  0
 18 20  1  0
 18 21  1  0
 21 22  1  0
 22 23  2  3
 23 24  1  0
 24 25  1  0
 25 26  1  0
 26 27  1  0
 27 28  1  0
 28 29  2  0
 29 30  1  0
 30 31  2  0
 31 32  1  0
 32 33  2  0
 33 34  1  0
 34 35  2  0
 35 36  1  0
 26 37  2  0
 37 38  1  0
 38 39  2  0
 39 40  1  0
 40 41  2  0
 41 42  1  0
 42 43  2  0
 43 44  1  0
 44 45  2  0
 17  4  1  0
 39 25  1  0
 45 40  1  0
 14  5  1  0
 36 28  1  0
 13  9  1  0
 36 32  1  0
  3 46  1  0
 10 47  1  0
 11 48  1  0
 12 49  1  0
 14 50  1  0
 15 51  1  0
 15 52  1  0
 16 53  1  0
 16 54  1  0
 17 55  1  0
 17 56  1  0
 19 57  1  0
 21 58  1  0
 22 59  1  0
 23 60  1  0
 24 61  1  0
 24 62  1  0
 29 63  1  0
 30 64  1  0
 31 65  1  0
 35 66  1  0
 41 67  1  0
 42 68  1  0
 43 69  1  0
 45 70  1  0
M  END
>  <Energy>  (414) 
153.75601226498682

>  <compound_id>  (414) 
2348

>  <target_id>  (414) 
1

>  <reference_id>  (414) 
175

>  <inspiration_ids>  (414) 
[175, 149]

>  <energy_score>  (414) 
-60.95179951449788

>  <distance_score>  (414) 
4.849084815220799

>  <path>  (414) 
/opt/xchem-fragalysis-2/maxwin/BulkDock/SCRATCH/505736/C2348-P175/C2348-P175.minimised.mol

>  <scratch_subdir>  (414) 
/opt/xchem-fragalysis-2/maxwin/BulkDock/SCRATCH/505736/C2348-P175

>  <fragmenstein_runtime>  (414) 
20.92178249359131

>  <fragmenstein_outcome>  (414) 
too moved

>  <fragmenstein_mode>  (414) 
expansion

>  <fragmenstein_error>  (414) 


$$$$
C2348-P149
     RDKit          3D

 70 76  0  0  0  0  0  0  0  0999 V2000
    3.0658   -6.6319   28.5180 O   0  0  0  0  0  0  0  0  0  0  0  0
    3.7614   -5.6518   28.4995 C   0  0  0  0  0  0  0  0  0  0  0  0
    5.0585   -5.4338   27.9147 N   0  0  0  0  0  0  0  0  0  0  0  0
    5.9687   -6.3461   27.2538 C   0  0  0  0  0  0  0  0  0  0  0  0
    6.8236   -7.0677   28.3396 C   0  0  0  0  0  0  0  0  0  0  0  0
    6.8729   -6.6811   29.5969 N   0  0  0  0  0  0  0  0  0  0  0  0
    7.8445   -7.4200   30.2245 N   0  0  0  0  0  0  0  0  0  0  0  0
    8.3839   -8.2225   29.3305 C   0  0  0  0  0  0  0  0  0  0  0  0
    9.5351   -9.0430   29.5287 C   0  0  0  0  0  0  0  0  0  0  0  0
   10.2295   -9.2066   30.7106 C   0  0  0  0  0  0  0  0  0  0  0  0
   11.3507  -10.0746   30.5701 C   0  0  0  0  0  0  0  0  0  0  0  0
   11.4773  -10.5458   29.2829 C   0  0  0  0  0  0  0  0  0  0  0  0
   10.2653   -9.9232   28.2504 S   0  0  0  0  0  0  0  0  0  0  0  0
    7.7047   -8.0910   28.1518 N   0  0  0  0  0  0  0  0  0  0  0  0
    6.8168   -5.6519   26.1740 C   0  0  0  0  0  0  0  0  0  0  0  0
    6.6118   -6.8863   25.2803 C   0  0  0  0  0  0  0  0  0  0  0  0
    5.3682   -7.2165   26.1298 C   0  0  0  0  0  0  0  0  0  0  0  0
    3.2356   -4.2934   29.1909 C   0  0  0  0  0  0  0  0  0  0  0  0
    4.5943   -3.1356   29.5546 S   0  0  0  0  0  0  0  0  0  0  0  0
    2.2237   -3.5265   27.9515 Cl  0  0  0  0  0  0  0  0  0  0  0  0
    2.5493   -4.4649   30.4882 N   0  0  0  0  0  0  0  0  0  0  0  0
    1.4196   -5.1885   30.7858 C   0  0  0  0  0  0  0  0  0  0  0  0
    0.9390   -5.6992   31.9356 C   0  0  0  0  0  0  0  0  0  0  0  0
    1.3476   -5.7441   33.3997 C   0  0  0  0  0  0  0  0  0  0  0  0
    2.5263   -5.0104   33.8076 N   0  0  0  0  0  0  0  0  0  0  0  0
    2.6967   -3.6572   33.8877 C   0  0  0  0  0  0  0  0  0  0  0  0
    1.4596   -2.5282   34.3078 S   0  0  0  0  0  0  0  0  0  0  0  0
    0.9196   -2.1596   32.7137 C   0  0  0  0  0  0  0  0  0  0  0  0
    1.6497   -1.4246   31.8512 C   0  0  0  0  0  0  0  0  0  0  0  0
    1.1462   -1.1981   30.5022 C   0  0  0  0  0  0  0  0  0  0  0  0
   -0.0098   -1.7449   30.0798 C   0  0  0  0  0  0  0  0  0  0  0  0
   -0.7769   -2.5205   30.9833 C   0  0  0  0  0  0  0  0  0  0  0  0
   -1.8928   -3.1964   30.8533 N   0  0  0  0  0  0  0  0  0  0  0  0
   -2.2062   -3.7313   32.0718 N   0  0  0  0  0  0  0  0  0  0  0  0
   -1.2883   -3.3558   32.9271 C   0  0  0  0  0  0  0  0  0  0  0  0
   -0.3105   -2.6533   32.2803 N   0  0  0  0  0  0  0  0  0  0  0  0
    3.9818   -3.4000   33.8632 N   0  0  0  0  0  0  0  0  0  0  0  0
    4.6305   -4.5904   34.0929 N   0  0  0  0  0  0  0  0  0  0  0  0
    3.7087   -5.5096   34.3226 C   0  0  0  0  0  0  0  0  0  0  0  0
    3.9218   -6.7129   35.1209 C   0  0  0  0  0  0  0  0  0  0  0  0
    3.0386   -7.0885   36.1395 C   0  0  0  0  0  0  0  0  0  0  0  0
    3.3711   -8.1354   36.9983 C   0  0  0  0  0  0  0  0  0  0  0  0
    4.5717   -8.7953   36.7991 C   0  0  0  0  0  0  0  0  0  0  0  0
    5.4373   -8.4832   35.8144 N   0  0  0  0  0  0  0  0  0  0  0  0
    5.1103   -7.4321   35.0205 C   0  0  0  0  0  0  0  0  0  0  0  0
    5.3842   -4.5007   28.1685 H   0  0  0  0  0  0  0  0  0  0  0  0
    9.9345   -8.7306   31.6391 H   0  0  0  0  0  0  0  0  0  0  0  0
   12.0210  -10.3437   31.3767 H   0  0  0  0  0  0  0  0  0  0  0  0
   12.2289  -11.2200   28.8964 H   0  0  0  0  0  0  0  0  0  0  0  0
    7.9207   -8.5715   27.2924 H   0  0  0  0  0  0  0  0  0  0  0  0
    7.8484   -5.4453   26.4700 H   0  0  0  0  0  0  0  0  0  0  0  0
    6.3713   -4.7369   25.7650 H   0  0  0  0  0  0  0  0  0  0  0  0
    6.4344   -6.6828   24.2255 H   0  0  0  0  0  0  0  0  0  0  0  0
    7.4157   -7.6263   25.3507 H   0  0  0  0  0  0  0  0  0  0  0  0
    5.2285   -8.2763   26.3435 H   0  0  0  0  0  0  0  0  0  0  0  0
    4.4341   -6.8275   25.7094 H   0  0  0  0  0  0  0  0  0  0  0  0
    3.7911   -2.1430   29.9521 H   0  0  0  0  0  0  0  0  0  0  0  0
    3.2245   -4.3810   31.2473 H   0  0  0  0  0  0  0  0  0  0  0  0
    0.8174   -5.3553   29.8882 H   0  0  0  0  0  0  0  0  0  0  0  0
   -0.0139   -6.2236   31.8058 H   0  0  0  0  0  0  0  0  0  0  0  0
    1.5004   -6.7942   33.6658 H   0  0  0  0  0  0  0  0  0  0  0  0
    0.5189   -5.3918   34.0223 H   0  0  0  0  0  0  0  0  0  0  0  0
    2.6168   -1.0043   32.1139 H   0  0  0  0  0  0  0  0  0  0  0  0
    1.7414   -0.5869   29.8294 H   0  0  0  0  0  0  0  0  0  0  0  0
   -0.3786   -1.6004   29.0682 H   0  0  0  0  0  0  0  0  0  0  0  0
   -1.2863   -3.5724   33.9857 H   0  0  0  0  0  0  0  0  0  0  0  0
    2.1199   -6.5369   36.3226 H   0  0  0  0  0  0  0  0  0  0  0  0
    2.7095   -8.4246   37.8096 H   0  0  0  0  0  0  0  0  0  0  0  0
    4.8749   -9.6159   37.4431 H   0  0  0  0  0  0  0  0  0  0  0  0
    5.8691   -7.1666   34.2856 H   0  0  0  0  0  0  0  0  0  0  0  0
  1  2  2  0
  2  3  1  0
  3  4  1  0
  4  5  1  0
  5  6  2  0
  6  7  1  0
  7  8  2  0
  8  9  1  0
  9 10  2  0
 10 11  1  0
 11 12  2  0
 12 13  1  0
  8 14  1  0
  4 15  1  0
 15 16  1  0
 16 17  1  0
  2 18  1  0
 18 19  1  0
 18 20  1  0
 18 21  1  0
 21 22  1  0
 22 23  2  3
 23 24  1  0
 24 25  1  0
 25 26  1  0
 26 27  1  0
 27 28  1  0
 28 29  2  0
 29 30  1  0
 30 31  2  0
 31 32  1  0
 32 33  2  0
 33 34  1  0
 34 35  2  0
 35 36  1  0
 26 37  2  0
 37 38  1  0
 38 39  2  0
 39 40  1  0
 40 41  2  0
 41 42  1  0
 42 43  2  0
 43 44  1  0
 44 45  2  0
 17  4  1  0
 39 25  1  0
 45 40  1  0
 14  5  1  0
 36 28  1  0
 13  9  1  0
 36 32  1  0
  3 46  1  0
 10 47  1  0
 11 48  1  0
 12 49  1  0
 14 50  1  0
 15 51  1  0
 15 52  1  0
 16 53  1  0
 16 54  1  0
 17 55  1  0
 17 56  1  0
 19 57  1  0
 21 58  1  0
 22 59  1  0
 23 60  1  0
 24 61  1  0
 24 62  1  0
 29 63  1  0
 30 64  1  0
 31 65  1  0
 35 66  1  0
 41 67  1  0
 42 68  1  0
 43 69  1  0
 45 70  1  0
M  END
>  <Energy>  (415) 
143.77955220793888

>  <compound_id>  (415) 
2348

>  <target_id>  (415) 
1

>  <reference_id>  (415) 
149

>  <inspiration_ids>  (415) 
[175, 149]

>  <energy_score>  (415) 
-70.92825957154335

>  <distance_score>  (415) 
5.439465096719424

>  <path>  (415) 
/opt/xchem-fragalysis-2/maxwin/BulkDock/SCRATCH/505736/C2348-P149/C2348-P149.minimised.mol

>  <scratch_subdir>  (415) 
/opt/xchem-fragalysis-2/maxwin/BulkDock/SCRATCH/505736/C2348-P149

>  <fragmenstein_runtime>  (415) 
25.24229407310486

>  <fragmenstein_outcome>  (415) 
too moved

>  <fragmenstein_mode>  (415) 
expansion

>  <fragmenstein_error>  (415) 


$$$$
C2602-P175
     RDKit          3D

 63 68  0  0  0  0  0  0  0  0999 V2000
    6.1280   -3.2045   27.0697 O   0  0  0  0  0  0  0  0  0  0  0  0
    5.2418   -3.9409   26.8545 C   0  0  0  0  0  0  0  0  0  0  0  0
    5.2333   -5.5004   26.7000 N   0  0  0  0  0  0  0  0  0  0  0  0
    6.3159   -6.4397   26.6846 C   0  0  0  0  0  0  0  0  0  0  0  0
    6.6607   -7.0179   28.0419 C   0  0  0  0  0  0  0  0  0  0  0  0
    6.4373   -6.4647   29.2094 N   0  0  0  0  0  0  0  0  0  0  0  0
    7.1264   -7.2103   30.1390 N   0  0  0  0  0  0  0  0  0  0  0  0
    7.6622   -8.2421   29.5220 C   0  0  0  0  0  0  0  0  0  0  0  0
    8.4258   -9.2974   30.0904 C   0  0  0  0  0  0  0  0  0  0  0  0
    8.8098   -9.4316   31.4058 C   0  0  0  0  0  0  0  0  0  0  0  0
    9.5664  -10.6188   31.6258 C   0  0  0  0  0  0  0  0  0  0  0  0
    9.7309  -11.3522   30.4721 C   0  0  0  0  0  0  0  0  0  0  0  0
    8.9829  -10.6062   29.1339 S   0  0  0  0  0  0  0  0  0  0  0  0
    7.3755   -8.1598   28.2000 N   0  0  0  0  0  0  0  0  0  0  0  0
    7.5187   -6.0098   25.8434 C   0  0  0  0  0  0  0  0  0  0  0  0
    6.7630   -6.5398   24.6098 C   0  0  0  0  0  0  0  0  0  0  0  0
    6.0303   -7.4985   25.5623 C   0  0  0  0  0  0  0  0  0  0  0  0
    3.7442   -3.4616   26.5411 C   0  0  0  0  0  0  0  0  0  0  0  0
    2.7433   -4.9192   26.0292 S   0  0  0  0  0  0  0  0  0  0  0  0
    4.1647   -2.3154   24.7388 Cl  0  0  0  0  0  0  0  0  0  0  0  0
    3.0946   -2.7298   27.6695 N   0  0  0  0  0  0  0  0  0  0  0  0
    1.9004   -3.3047   28.4406 C   0  0  0  0  0  0  0  0  0  0  0  0
    1.8747   -4.1151   29.8450 C   0  0  0  0  0  0  0  0  0  0  0  0
    2.7292   -3.7360   30.8293 C   0  0  0  0  0  0  0  0  0  0  0  0
    2.6517   -4.2045   32.2200 C   0  0  0  0  0  0  0  0  0  0  0  0
    1.7177   -5.0948   32.6040 C   0  0  0  0  0  0  0  0  0  0  0  0
    1.5465   -5.5841   34.2712 S   0  0  0  0  0  0  0  0  0  0  0  0
   -0.1136   -4.9020   34.6478 C   0  0  0  0  0  0  0  0  0  0  0  0
   -0.2620   -4.5224   36.0911 C   0  0  0  0  0  0  0  0  0  0  0  0
   -0.7281   -5.4388   37.0357 C   0  0  0  0  0  0  0  0  0  0  0  0
   -0.8178   -5.0331   38.3596 C   0  0  0  0  0  0  0  0  0  0  0  0
   -0.4852   -3.7987   38.7959 N   0  0  0  0  0  0  0  0  0  0  0  0
   -0.0370   -2.9301   37.8686 C   0  0  0  0  0  0  0  0  0  0  0  0
    0.0934   -3.2401   36.5249 C   0  0  0  0  0  0  0  0  0  0  0  0
    0.8781   -5.5947   31.6157 N   0  0  0  0  0  0  0  0  0  0  0  0
   -0.0691   -6.5888   31.6801 C   0  0  0  0  0  0  0  0  0  0  0  0
   -0.6780   -6.6984   30.5309 N   0  0  0  0  0  0  0  0  0  0  0  0
   -0.1330   -5.7425   29.6967 N   0  0  0  0  0  0  0  0  0  0  0  0
    0.8754   -5.1317   30.2860 C   0  0  0  0  0  0  0  0  0  0  0  0
    4.2818   -5.8251   26.5997 H   0  0  0  0  0  0  0  0  0  0  0  0
    8.5586   -8.7117   32.1767 H   0  0  0  0  0  0  0  0  0  0  0  0
    9.9652  -10.9230   32.5862 H   0  0  0  0  0  0  0  0  0  0  0  0
   10.2525  -12.2933   30.3561 H   0  0  0  0  0  0  0  0  0  0  0  0
    7.7227   -8.7799   27.4837 H   0  0  0  0  0  0  0  0  0  0  0  0
    8.4534   -6.5491   26.0421 H   0  0  0  0  0  0  0  0  0  0  0  0
    7.7245   -4.9438   25.8978 H   0  0  0  0  0  0  0  0  0  0  0  0
    7.3630   -7.0346   23.8585 H   0  0  0  0  0  0  0  0  0  0  0  0
    6.1262   -5.7926   24.1335 H   0  0  0  0  0  0  0  0  0  0  0  0
    4.9817   -7.6910   25.3128 H   0  0  0  0  0  0  0  0  0  0  0  0
    6.5345   -8.4663   25.6634 H   0  0  0  0  0  0  0  0  0  0  0  0
    3.6057   -5.2592   25.0580 H   0  0  0  0  0  0  0  0  0  0  0  0
    3.8009   -2.3377   28.2870 H   0  0  0  0  0  0  0  0  0  0  0  0
    1.3499   -2.3887   28.7073 H   0  0  0  0  0  0  0  0  0  0  0  0
    1.1945   -3.7945   27.7674 H   0  0  0  0  0  0  0  0  0  0  0  0
    3.4718   -2.9620   30.6429 H   0  0  0  0  0  0  0  0  0  0  0  0
    3.3513   -3.7641   32.9269 H   0  0  0  0  0  0  0  0  0  0  0  0
   -0.8717   -5.6466   34.3814 H   0  0  0  0  0  0  0  0  0  0  0  0
   -0.3079   -4.0218   34.0232 H   0  0  0  0  0  0  0  0  0  0  0  0
   -0.9936   -6.4539   36.7596 H   0  0  0  0  0  0  0  0  0  0  0  0
   -1.1705   -5.7119   39.1310 H   0  0  0  0  0  0  0  0  0  0  0  0
    0.2268   -1.9463   38.2453 H   0  0  0  0  0  0  0  0  0  0  0  0
    0.4685   -2.4925   35.8340 H   0  0  0  0  0  0  0  0  0  0  0  0
   -0.2624   -7.1882   32.5586 H   0  0  0  0  0  0  0  0  0  0  0  0
  1  2  2  0
  2  3  1  0
  3  4  1  0
  4  5  1  0
  5  6  2  0
  6  7  1  0
  7  8  2  0
  8  9  1  0
  9 10  2  0
 10 11  1  0
 11 12  2  0
 12 13  1  0
  8 14  1  0
  4 15  1  0
 15 16  1  0
 16 17  1  0
  2 18  1  0
 18 19  1  0
 18 20  1  0
 18 21  1  0
 21 22  1  0
 22 23  1  0
 23 24  2  0
 24 25  1  0
 25 26  2  0
 26 27  1  0
 27 28  1  0
 28 29  1  0
 29 30  2  0
 30 31  1  0
 31 32  2  0
 32 33  1  0
 33 34  2  0
 26 35  1  0
 35 36  1  0
 36 37  2  0
 37 38  1  0
 38 39  2  0
 17  4  1  0
 39 23  1  0
 14  5  1  0
 34 29  1  0
 39 35  1  0
 13  9  1  0
  3 40  1  0
 10 41  1  0
 11 42  1  0
 12 43  1  0
 14 44  1  0
 15 45  1  0
 15 46  1  0
 16 47  1  0
 16 48  1  0
 17 49  1  0
 17 50  1  0
 19 51  1  0
 21 52  1  0
 22 53  1  0
 22 54  1  0
 24 55  1  0
 25 56  1  0
 28 57  1  0
 28 58  1  0
 30 59  1  0
 31 60  1  0
 33 61  1  0
 34 62  1  0
 36 63  1  0
M  END
>  <Energy>  (416) 
173.33678591361414

>  <compound_id>  (416) 
2602

>  <target_id>  (416) 
1

>  <reference_id>  (416) 
175

>  <inspiration_ids>  (416) 
[175, 150]

>  <energy_score>  (416) 
7.243747549145269

>  <distance_score>  (416) 
4.7354333806596145

>  <path>  (416) 
/opt/xchem-fragalysis-2/maxwin/BulkDock/SCRATCH/505736/C2602-P175/C2602-P175.minimised.mol

>  <scratch_subdir>  (416) 
/opt/xchem-fragalysis-2/maxwin/BulkDock/SCRATCH/505736/C2602-P175

>  <fragmenstein_runtime>  (416) 
19.7206768989563

>  <fragmenstein_outcome>  (416) 
too moved

>  <fragmenstein_mode>  (416) 
expansion

>  <fragmenstein_error>  (416) 


$$$$
C2602-P150
     RDKit          3D

 63 68  0  0  0  0  0  0  0  0999 V2000
    0.5911   -5.3537   23.7003 O   0  0  0  0  0  0  0  0  0  0  0  0
    0.5890   -5.2880   24.9295 C   0  0  0  0  0  0  0  0  0  0  0  0
    1.9452   -5.3402   26.0985 N   0  0  0  0  0  0  0  0  0  0  0  0
    3.4553   -5.5923   25.8950 C   0  0  0  0  0  0  0  0  0  0  0  0
    3.8911   -5.9454   27.6453 C   0  0  0  0  0  0  0  0  0  0  0  0
    3.7499   -5.0730   28.6228 N   0  0  0  0  0  0  0  0  0  0  0  0
    4.8438   -5.2360   29.4781 N   0  0  0  0  0  0  0  0  0  0  0  0
    5.5857   -6.2298   29.0271 C   0  0  0  0  0  0  0  0  0  0  0  0
    6.8261   -6.7423   29.5426 C   0  0  0  0  0  0  0  0  0  0  0  0
    7.5698   -6.2518   30.5976 C   0  0  0  0  0  0  0  0  0  0  0  0
    8.7045   -7.0665   30.8977 C   0  0  0  0  0  0  0  0  0  0  0  0
    8.8055   -8.1481   30.0525 C   0  0  0  0  0  0  0  0  0  0  0  0
    7.5515   -8.1668   28.8941 S   0  0  0  0  0  0  0  0  0  0  0  0
    4.9320   -6.7904   27.9717 N   0  0  0  0  0  0  0  0  0  0  0  0
    4.7273   -4.7513   25.7041 C   0  0  0  0  0  0  0  0  0  0  0  0
    5.4246   -6.0672   25.1487 C   0  0  0  0  0  0  0  0  0  0  0  0
    4.0941   -6.8646   25.2645 C   0  0  0  0  0  0  0  0  0  0  0  0
   -1.1008   -5.2418   26.0267 C   0  0  0  0  0  0  0  0  0  0  0  0
   -2.1823   -6.9830   26.9593 S   0  0  0  0  0  0  0  0  0  0  0  0
   -1.8519   -5.5051   24.2426 Cl  0  0  0  0  0  0  0  0  0  0  0  0
   -0.6445   -4.0675   27.2853 N   0  0  0  0  0  0  0  0  0  0  0  0
    0.1801   -4.0329   28.4991 C   0  0  0  0  0  0  0  0  0  0  0  0
   -0.1555   -4.5630   29.9166 C   0  0  0  0  0  0  0  0  0  0  0  0
   -0.1613   -3.6534   30.9304 C   0  0  0  0  0  0  0  0  0  0  0  0
   -0.2093   -3.9996   32.3493 C   0  0  0  0  0  0  0  0  0  0  0  0
   -0.2527   -5.2893   32.7289 C   0  0  0  0  0  0  0  0  0  0  0  0
   -0.2342   -5.8647   34.3684 S   0  0  0  0  0  0  0  0  0  0  0  0
    0.5485   -4.5818   35.3731 C   0  0  0  0  0  0  0  0  0  0  0  0
   -0.4021   -4.0035   36.3887 C   0  0  0  0  0  0  0  0  0  0  0  0
   -0.6937   -4.6932   37.5721 C   0  0  0  0  0  0  0  0  0  0  0  0
   -1.5655   -4.1176   38.4841 C   0  0  0  0  0  0  0  0  0  0  0  0
   -2.1714   -2.9263   38.2933 N   0  0  0  0  0  0  0  0  0  0  0  0
   -1.8905   -2.2835   37.1407 C   0  0  0  0  0  0  0  0  0  0  0  0
   -1.0261   -2.7719   36.1727 C   0  0  0  0  0  0  0  0  0  0  0  0
   -0.3586   -6.2361   31.7030 N   0  0  0  0  0  0  0  0  0  0  0  0
   -0.6273   -7.5808   31.7514 C   0  0  0  0  0  0  0  0  0  0  0  0
   -0.6163   -8.0915   30.5449 N   0  0  0  0  0  0  0  0  0  0  0  0
   -0.3579   -7.0737   29.6740 N   0  0  0  0  0  0  0  0  0  0  0  0
   -0.2687   -5.9411   30.3404 C   0  0  0  0  0  0  0  0  0  0  0  0
    1.5918   -5.3440   27.0441 H   0  0  0  0  0  0  0  0  0  0  0  0
    7.2968   -5.3588   31.1486 H   0  0  0  0  0  0  0  0  0  0  0  0
    9.4070   -6.8699   31.6988 H   0  0  0  0  0  0  0  0  0  0  0  0
    9.5576   -8.9264   30.0598 H   0  0  0  0  0  0  0  0  0  0  0  0
    5.3564   -7.4969   27.3915 H   0  0  0  0  0  0  0  0  0  0  0  0
    5.2607   -4.4003   26.6027 H   0  0  0  0  0  0  0  0  0  0  0  0
    4.6831   -3.8016   25.1939 H   0  0  0  0  0  0  0  0  0  0  0  0
    6.2447   -6.4346   25.7759 H   0  0  0  0  0  0  0  0  0  0  0  0
    5.8317   -6.0687   24.1404 H   0  0  0  0  0  0  0  0  0  0  0  0
    3.7494   -7.2944   24.3361 H   0  0  0  0  0  0  0  0  0  0  0  0
    4.1174   -7.7656   25.8866 H   0  0  0  0  0  0  0  0  0  0  0  0
   -1.6133   -6.8015   28.1579 H   0  0  0  0  0  0  0  0  0  0  0  0
   -1.5285   -3.5967   27.4873 H   0  0  0  0  0  0  0  0  0  0  0  0
    1.2291   -4.2680   28.3339 H   0  0  0  0  0  0  0  0  0  0  0  0
    0.2727   -2.9426   28.6280 H   0  0  0  0  0  0  0  0  0  0  0  0
   -0.0324   -2.5908   30.7260 H   0  0  0  0  0  0  0  0  0  0  0  0
   -0.1801   -3.1712   33.0471 H   0  0  0  0  0  0  0  0  0  0  0  0
    1.0081   -3.7903   34.7742 H   0  0  0  0  0  0  0  0  0  0  0  0
    1.3838   -5.0501   35.9081 H   0  0  0  0  0  0  0  0  0  0  0  0
   -0.2547   -5.6628   37.7858 H   0  0  0  0  0  0  0  0  0  0  0  0
   -1.8167   -4.6218   39.4140 H   0  0  0  0  0  0  0  0  0  0  0  0
   -2.3966   -1.3316   37.0079 H   0  0  0  0  0  0  0  0  0  0  0  0
   -0.8558   -2.1972   35.2699 H   0  0  0  0  0  0  0  0  0  0  0  0
   -0.8349   -8.1213   32.6654 H   0  0  0  0  0  0  0  0  0  0  0  0
  1  2  2  0
  2  3  1  0
  3  4  1  0
  4  5  1  0
  5  6  2  0
  6  7  1  0
  7  8  2  0
  8  9  1  0
  9 10  2  0
 10 11  1  0
 11 12  2  0
 12 13  1  0
  8 14  1  0
  4 15  1  0
 15 16  1  0
 16 17  1  0
  2 18  1  0
 18 19  1  0
 18 20  1  0
 18 21  1  0
 21 22  1  0
 22 23  1  0
 23 24  2  0
 24 25  1  0
 25 26  2  0
 26 27  1  0
 27 28  1  0
 28 29  1  0
 29 30  2  0
 30 31  1  0
 31 32  2  0
 32 33  1  0
 33 34  2  0
 26 35  1  0
 35 36  1  0
 36 37  2  0
 37 38  1  0
 38 39  2  0
 17  4  1  0
 39 23  1  0
 14  5  1  0
 34 29  1  0
 39 35  1  0
 13  9  1  0
  3 40  1  0
 10 41  1  0
 11 42  1  0
 12 43  1  0
 14 44  1  0
 15 45  1  0
 15 46  1  0
 16 47  1  0
 16 48  1  0
 17 49  1  0
 17 50  1  0
 19 51  1  0
 21 52  1  0
 22 53  1  0
 22 54  1  0
 24 55  1  0
 25 56  1  0
 28 57  1  0
 28 58  1  0
 30 59  1  0
 31 60  1  0
 33 61  1  0
 34 62  1  0
 36 63  1  0
M  END
>  <Energy>  (417) 
405.16901751414366

>  <compound_id>  (417) 
2602

>  <target_id>  (417) 
1

>  <reference_id>  (417) 
150

>  <inspiration_ids>  (417) 
[175, 150]

>  <energy_score>  (417) 
239.42931147019033

>  <distance_score>  (417) 
4.714750132518279

>  <path>  (417) 
/opt/xchem-fragalysis-2/maxwin/BulkDock/SCRATCH/505736/C2602-P150/C2602-P150.minimised.mol

>  <scratch_subdir>  (417) 
/opt/xchem-fragalysis-2/maxwin/BulkDock/SCRATCH/505736/C2602-P150

>  <fragmenstein_runtime>  (417) 
19.96146583557129

>  <fragmenstein_outcome>  (417) 
too moved

>  <fragmenstein_mode>  (417) 
expansion

>  <fragmenstein_error>  (417) 


$$$$
C2602-P175
     RDKit          3D

 63 68  0  0  0  0  0  0  0  0999 V2000
    4.9686   -3.9967   28.5789 O   0  0  0  0  0  0  0  0  0  0  0  0
    4.5152   -4.6881   27.7488 C   0  0  0  0  0  0  0  0  0  0  0  0
    5.2133   -5.7362   26.7996 N   0  0  0  0  0  0  0  0  0  0  0  0
    6.5612   -6.1915   26.7597 C   0  0  0  0  0  0  0  0  0  0  0  0
    7.0044   -6.8105   28.0754 C   0  0  0  0  0  0  0  0  0  0  0  0
    6.7924   -6.3105   29.2705 N   0  0  0  0  0  0  0  0  0  0  0  0
    7.3420   -7.1770   30.1822 N   0  0  0  0  0  0  0  0  0  0  0  0
    7.8208   -8.2070   29.5207 C   0  0  0  0  0  0  0  0  0  0  0  0
    8.4670   -9.3489   30.0642 C   0  0  0  0  0  0  0  0  0  0  0  0
    8.7824   -9.5688   31.3864 C   0  0  0  0  0  0  0  0  0  0  0  0
    9.4498  -10.8118   31.5793 C   0  0  0  0  0  0  0  0  0  0  0  0
    9.6126  -11.5017   30.3990 C   0  0  0  0  0  0  0  0  0  0  0  0
    8.9627  -10.6510   29.0710 S   0  0  0  0  0  0  0  0  0  0  0  0
    7.6167   -8.0158   28.1924 N   0  0  0  0  0  0  0  0  0  0  0  0
    7.4824   -5.2949   25.9714 C   0  0  0  0  0  0  0  0  0  0  0  0
    6.8391   -5.9267   24.6899 C   0  0  0  0  0  0  0  0  0  0  0  0
    6.6629   -7.1911   25.5337 C   0  0  0  0  0  0  0  0  0  0  0  0
    3.0475   -4.9107   27.3382 C   0  0  0  0  0  0  0  0  0  0  0  0
    2.8353   -6.7768   27.5408 S   0  0  0  0  0  0  0  0  0  0  0  0
    3.1447   -4.3557   25.3773 Cl  0  0  0  0  0  0  0  0  0  0  0  0
    1.9154   -4.1853   27.8587 N   0  0  0  0  0  0  0  0  0  0  0  0
    1.6546   -3.9880   29.2837 C   0  0  0  0  0  0  0  0  0  0  0  0
    1.5081   -5.0000   30.4734 C   0  0  0  0  0  0  0  0  0  0  0  0
    2.3370   -4.7047   31.5122 C   0  0  0  0  0  0  0  0  0  0  0  0
    2.1334   -5.1418   32.8819 C   0  0  0  0  0  0  0  0  0  0  0  0
    1.0670   -5.8934   33.1960 C   0  0  0  0  0  0  0  0  0  0  0  0
    0.7444   -6.2993   34.8510 S   0  0  0  0  0  0  0  0  0  0  0  0
   -0.3540   -4.9175   35.3283 C   0  0  0  0  0  0  0  0  0  0  0  0
    0.0314   -4.3440   36.6646 C   0  0  0  0  0  0  0  0  0  0  0  0
   -0.4309   -4.9200   37.8518 C   0  0  0  0  0  0  0  0  0  0  0  0
   -0.0525   -4.3545   39.0591 C   0  0  0  0  0  0  0  0  0  0  0  0
    0.7519   -3.2750   39.1628 N   0  0  0  0  0  0  0  0  0  0  0  0
    1.1996   -2.7413   38.0072 C   0  0  0  0  0  0  0  0  0  0  0  0
    0.8742   -3.2321   36.7518 C   0  0  0  0  0  0  0  0  0  0  0  0
    0.2621   -6.3412   32.1465 N   0  0  0  0  0  0  0  0  0  0  0  0
   -0.7877   -7.2253   32.1452 C   0  0  0  0  0  0  0  0  0  0  0  0
   -1.2170   -7.4120   30.9212 N   0  0  0  0  0  0  0  0  0  0  0  0
   -0.4518   -6.6193   30.0880 N   0  0  0  0  0  0  0  0  0  0  0  0
    0.4424   -5.9587   30.8007 C   0  0  0  0  0  0  0  0  0  0  0  0
    4.5376   -6.1008   26.1419 H   0  0  0  0  0  0  0  0  0  0  0  0
    8.5503   -8.8662   32.1791 H   0  0  0  0  0  0  0  0  0  0  0  0
    9.7884  -11.1847   32.5385 H   0  0  0  0  0  0  0  0  0  0  0  0
   10.0747  -12.4702   30.2584 H   0  0  0  0  0  0  0  0  0  0  0  0
    7.8962   -8.6492   27.4594 H   0  0  0  0  0  0  0  0  0  0  0  0
    8.5460   -5.5228   26.1155 H   0  0  0  0  0  0  0  0  0  0  0  0
    7.3161   -4.2230   26.1167 H   0  0  0  0  0  0  0  0  0  0  0  0
    7.4253   -6.0612   23.7949 H   0  0  0  0  0  0  0  0  0  0  0  0
    5.9082   -5.4428   24.3876 H   0  0  0  0  0  0  0  0  0  0  0  0
    7.5455   -7.8412   25.4990 H   0  0  0  0  0  0  0  0  0  0  0  0
    5.7802   -7.7962   25.3050 H   0  0  0  0  0  0  0  0  0  0  0  0
    3.0056   -7.0918   26.2528 H   0  0  0  0  0  0  0  0  0  0  0  0
    1.9231   -3.2623   27.4217 H   0  0  0  0  0  0  0  0  0  0  0  0
    2.3672   -3.2077   29.5868 H   0  0  0  0  0  0  0  0  0  0  0  0
    0.6872   -3.4629   29.2989 H   0  0  0  0  0  0  0  0  0  0  0  0
    3.1393   -3.9734   31.4004 H   0  0  0  0  0  0  0  0  0  0  0  0
    2.8248   -4.7690   33.6339 H   0  0  0  0  0  0  0  0  0  0  0  0
   -1.3762   -5.3048   35.3742 H   0  0  0  0  0  0  0  0  0  0  0  0
   -0.3506   -4.1274   34.5686 H   0  0  0  0  0  0  0  0  0  0  0  0
   -1.0711   -5.7954   37.8444 H   0  0  0  0  0  0  0  0  0  0  0  0
   -0.3976   -4.7700   40.0019 H   0  0  0  0  0  0  0  0  0  0  0  0
    1.8493   -1.8780   38.1192 H   0  0  0  0  0  0  0  0  0  0  0  0
    1.2715   -2.7505   35.8649 H   0  0  0  0  0  0  0  0  0  0  0  0
   -1.1693   -7.7119   33.0334 H   0  0  0  0  0  0  0  0  0  0  0  0
  1  2  2  0
  2  3  1  0
  3  4  1  0
  4  5  1  0
  5  6  2  0
  6  7  1  0
  7  8  2  0
  8  9  1  0
  9 10  2  0
 10 11  1  0
 11 12  2  0
 12 13  1  0
  8 14  1  0
  4 15  1  0
 15 16  1  0
 16 17  1  0
  2 18  1  0
 18 19  1  0
 18 20  1  0
 18 21  1  0
 21 22  1  0
 22 23  1  0
 23 24  2  0
 24 25  1  0
 25 26  2  0
 26 27  1  0
 27 28  1  0
 28 29  1  0
 29 30  2  0
 30 31  1  0
 31 32  2  0
 32 33  1  0
 33 34  2  0
 26 35  1  0
 35 36  1  0
 36 37  2  0
 37 38  1  0
 38 39  2  0
 17  4  1  0
 39 23  1  0
 14  5  1  0
 34 29  1  0
 39 35  1  0
 13  9  1  0
  3 40  1  0
 10 41  1  0
 11 42  1  0
 12 43  1  0
 14 44  1  0
 15 45  1  0
 15 46  1  0
 16 47  1  0
 16 48  1  0
 17 49  1  0
 17 50  1  0
 19 51  1  0
 21 52  1  0
 22 53  1  0
 22 54  1  0
 24 55  1  0
 25 56  1  0
 28 57  1  0
 28 58  1  0
 30 59  1  0
 31 60  1  0
 33 61  1  0
 34 62  1  0
 36 63  1  0
M  END
>  <Energy>  (418) 
165.55465668933476

>  <compound_id>  (418) 
2602

>  <target_id>  (418) 
1

>  <reference_id>  (418) 
175

>  <inspiration_ids>  (418) 
[175, 152]

>  <energy_score>  (418) 
-0.5383816751398172

>  <distance_score>  (418) 
4.883186299381888

>  <path>  (418) 
/opt/xchem-fragalysis-2/maxwin/BulkDock/SCRATCH/505736/C2602-P175/C2602-P175.minimised.mol

>  <scratch_subdir>  (418) 
/opt/xchem-fragalysis-2/maxwin/BulkDock/SCRATCH/505736/C2602-P175

>  <fragmenstein_runtime>  (418) 
15.147013902664185

>  <fragmenstein_outcome>  (418) 
too moved

>  <fragmenstein_mode>  (418) 
expansion

>  <fragmenstein_error>  (418) 


$$$$
C2602-P152
     RDKit          3D

 63 68  0  0  0  0  0  0  0  0999 V2000
    6.3108   -6.4502   26.7184 O   0  0  0  0  0  0  0  0  0  0  0  0
    5.7295   -5.6118   27.3491 C   0  0  0  0  0  0  0  0  0  0  0  0
    6.2291   -4.5743   28.2222 N   0  0  0  0  0  0  0  0  0  0  0  0
    7.5685   -4.2855   28.6795 C   0  0  0  0  0  0  0  0  0  0  0  0
    8.2295   -5.5788   29.2276 C   0  0  0  0  0  0  0  0  0  0  0  0
    8.5175   -5.8243   30.4842 N   0  0  0  0  0  0  0  0  0  0  0  0
    9.1635   -7.0401   30.5254 N   0  0  0  0  0  0  0  0  0  0  0  0
    9.2172   -7.5188   29.2981 C   0  0  0  0  0  0  0  0  0  0  0  0
    9.9124   -8.6971   28.8915 C   0  0  0  0  0  0  0  0  0  0  0  0
   10.8796   -9.3592   29.6223 C   0  0  0  0  0  0  0  0  0  0  0  0
   11.4278  -10.4713   28.9222 C   0  0  0  0  0  0  0  0  0  0  0  0
   10.8505  -10.6305   27.6822 C   0  0  0  0  0  0  0  0  0  0  0  0
    9.6601   -9.4424   27.3692 S   0  0  0  0  0  0  0  0  0  0  0  0
    8.5741   -6.6560   28.4612 N   0  0  0  0  0  0  0  0  0  0  0  0
    7.6576   -3.0388   29.5905 C   0  0  0  0  0  0  0  0  0  0  0  0
    8.9167   -2.6222   28.8112 C   0  0  0  0  0  0  0  0  0  0  0  0
    8.4290   -3.5096   27.6571 C   0  0  0  0  0  0  0  0  0  0  0  0
    4.1454   -5.4881   27.3239 C   0  0  0  0  0  0  0  0  0  0  0  0
    3.4262   -7.0994   26.9514 S   0  0  0  0  0  0  0  0  0  0  0  0
    3.8238   -4.3061   26.0406 Cl  0  0  0  0  0  0  0  0  0  0  0  0
    3.7198   -5.0034   28.6695 N   0  0  0  0  0  0  0  0  0  0  0  0
    2.3083   -4.6378   28.8318 C   0  0  0  0  0  0  0  0  0  0  0  0
    1.8128   -4.7818   30.2757 C   0  0  0  0  0  0  0  0  0  0  0  0
    2.3215   -3.9767   31.2395 C   0  0  0  0  0  0  0  0  0  0  0  0
    1.9023   -4.0417   32.6325 C   0  0  0  0  0  0  0  0  0  0  0  0
    0.9308   -4.8969   33.0096 C   0  0  0  0  0  0  0  0  0  0  0  0
    0.3822   -4.9986   34.6591 S   0  0  0  0  0  0  0  0  0  0  0  0
   -0.0349   -3.2548   34.9775 C   0  0  0  0  0  0  0  0  0  0  0  0
   -0.8535   -2.9636   36.2107 C   0  0  0  0  0  0  0  0  0  0  0  0
   -0.7178   -3.6566   37.4167 C   0  0  0  0  0  0  0  0  0  0  0  0
   -1.4822   -3.2587   38.5062 C   0  0  0  0  0  0  0  0  0  0  0  0
   -2.3417   -2.2161   38.4853 N   0  0  0  0  0  0  0  0  0  0  0  0
   -2.4445   -1.5423   37.3250 C   0  0  0  0  0  0  0  0  0  0  0  0
   -1.7348   -1.8721   36.1819 C   0  0  0  0  0  0  0  0  0  0  0  0
    0.3927   -5.7387   32.0274 N   0  0  0  0  0  0  0  0  0  0  0  0
   -0.5578   -6.7275   32.0874 C   0  0  0  0  0  0  0  0  0  0  0  0
   -0.7003   -7.2960   30.9112 N   0  0  0  0  0  0  0  0  0  0  0  0
    0.1633   -6.6754   30.0404 N   0  0  0  0  0  0  0  0  0  0  0  0
    0.8011   -5.7248   30.6931 C   0  0  0  0  0  0  0  0  0  0  0  0
    5.4379   -4.0959   28.6565 H   0  0  0  0  0  0  0  0  0  0  0  0
   11.1919   -9.0427   30.6118 H   0  0  0  0  0  0  0  0  0  0  0  0
   12.2025  -11.1215   29.3104 H   0  0  0  0  0  0  0  0  0  0  0  0
   11.0663  -11.3914   26.9451 H   0  0  0  0  0  0  0  0  0  0  0  0
    8.4121   -6.7627   27.4676 H   0  0  0  0  0  0  0  0  0  0  0  0
    7.8088   -3.2108   30.6601 H   0  0  0  0  0  0  0  0  0  0  0  0
    6.8274   -2.3302   29.4757 H   0  0  0  0  0  0  0  0  0  0  0  0
    9.0040   -1.5563   28.5858 H   0  0  0  0  0  0  0  0  0  0  0  0
    9.8518   -2.9658   29.2683 H   0  0  0  0  0  0  0  0  0  0  0  0
    9.2281   -4.0675   27.1628 H   0  0  0  0  0  0  0  0  0  0  0  0
    7.8539   -2.9564   26.9051 H   0  0  0  0  0  0  0  0  0  0  0  0
    4.1747   -7.3103   25.8487 H   0  0  0  0  0  0  0  0  0  0  0  0
    3.9174   -5.7842   29.2961 H   0  0  0  0  0  0  0  0  0  0  0  0
    2.1618   -3.6001   28.5093 H   0  0  0  0  0  0  0  0  0  0  0  0
    1.6763   -5.2509   28.2020 H   0  0  0  0  0  0  0  0  0  0  0  0
    3.0810   -3.2349   30.9979 H   0  0  0  0  0  0  0  0  0  0  0  0
    2.4043   -3.3765   33.3295 H   0  0  0  0  0  0  0  0  0  0  0  0
   -0.5811   -2.8884   34.0998 H   0  0  0  0  0  0  0  0  0  0  0  0
    0.8945   -2.6796   35.0550 H   0  0  0  0  0  0  0  0  0  0  0  0
   -0.0395   -4.4960   37.5261 H   0  0  0  0  0  0  0  0  0  0  0  0
   -1.4252   -3.7900   39.4531 H   0  0  0  0  0  0  0  0  0  0  0  0
   -3.1334   -0.7031   37.3351 H   0  0  0  0  0  0  0  0  0  0  0  0
   -1.8716   -1.2809   35.2820 H   0  0  0  0  0  0  0  0  0  0  0  0
   -1.0941   -6.9915   32.9889 H   0  0  0  0  0  0  0  0  0  0  0  0
  1  2  2  0
  2  3  1  0
  3  4  1  0
  4  5  1  0
  5  6  2  0
  6  7  1  0
  7  8  2  0
  8  9  1  0
  9 10  2  0
 10 11  1  0
 11 12  2  0
 12 13  1  0
  8 14  1  0
  4 15  1  0
 15 16  1  0
 16 17  1  0
  2 18  1  0
 18 19  1  0
 18 20  1  0
 18 21  1  0
 21 22  1  0
 22 23  1  0
 23 24  2  0
 24 25  1  0
 25 26  2  0
 26 27  1  0
 27 28  1  0
 28 29  1  0
 29 30  2  0
 30 31  1  0
 31 32  2  0
 32 33  1  0
 33 34  2  0
 26 35  1  0
 35 36  1  0
 36 37  2  0
 37 38  1  0
 38 39  2  0
 17  4  1  0
 39 23  1  0
 14  5  1  0
 34 29  1  0
 39 35  1  0
 13  9  1  0
  3 40  1  0
 10 41  1  0
 11 42  1  0
 12 43  1  0
 14 44  1  0
 15 45  1  0
 15 46  1  0
 16 47  1  0
 16 48  1  0
 17 49  1  0
 17 50  1  0
 19 51  1  0
 21 52  1  0
 22 53  1  0
 22 54  1  0
 24 55  1  0
 25 56  1  0
 28 57  1  0
 28 58  1  0
 30 59  1  0
 31 60  1  0
 33 61  1  0
 34 62  1  0
 36 63  1  0
M  END
>  <Energy>  (419) 
90.121134144380449

>  <compound_id>  (419) 
2602

>  <target_id>  (419) 
1

>  <reference_id>  (419) 
152

>  <inspiration_ids>  (419) 
[175, 152]

>  <energy_score>  (419) 
-75.61857189958062

>  <distance_score>  (419) 
5.580737875013368

>  <path>  (419) 
/opt/xchem-fragalysis-2/maxwin/BulkDock/SCRATCH/505736/C2602-P152/C2602-P152.minimised.mol

>  <scratch_subdir>  (419) 
/opt/xchem-fragalysis-2/maxwin/BulkDock/SCRATCH/505736/C2602-P152

>  <fragmenstein_runtime>  (419) 
37.71519374847412

>  <fragmenstein_outcome>  (419) 
too moved

>  <fragmenstein_mode>  (419) 
expansion

>  <fragmenstein_error>  (419) 


$$$$
C2603-P175
     RDKit          3D

 63 69  0  0  0  0  0  0  0  0999 V2000
    2.9231   -6.6891   26.7547 O   0  0  0  0  0  0  0  0  0  0  0  0
    3.6242   -5.7596   26.8052 C   0  0  0  0  0  0  0  0  0  0  0  0
    5.1691   -5.6626   26.7313 N   0  0  0  0  0  0  0  0  0  0  0  0
    6.1527   -6.6727   26.4869 C   0  0  0  0  0  0  0  0  0  0  0  0
    6.6074   -7.2348   27.8322 C   0  0  0  0  0  0  0  0  0  0  0  0
    6.4810   -6.6014   28.9787 N   0  0  0  0  0  0  0  0  0  0  0  0
    7.1612   -7.3219   29.9208 N   0  0  0  0  0  0  0  0  0  0  0  0
    7.6415   -8.3971   29.3350 C   0  0  0  0  0  0  0  0  0  0  0  0
    8.4123   -9.4178   29.9511 C   0  0  0  0  0  0  0  0  0  0  0  0
    8.7789   -9.4918   31.2769 C   0  0  0  0  0  0  0  0  0  0  0  0
    9.5540  -10.6537   31.5553 C   0  0  0  0  0  0  0  0  0  0  0  0
    9.7502  -11.4257   30.4323 C   0  0  0  0  0  0  0  0  0  0  0  0
    9.0086  -10.7439   29.0566 S   0  0  0  0  0  0  0  0  0  0  0  0
    7.2966   -8.3858   28.0183 N   0  0  0  0  0  0  0  0  0  0  0  0
    7.3153   -6.1616   25.6250 C   0  0  0  0  0  0  0  0  0  0  0  0
    6.4871   -6.6024   24.4146 C   0  0  0  0  0  0  0  0  0  0  0  0
    5.8152   -7.6389   25.3402 C   0  0  0  0  0  0  0  0  0  0  0  0
    3.2047   -4.2834   27.0775 C   0  0  0  0  0  0  0  0  0  0  0  0
    1.5164   -3.9187   27.4894 S   0  0  0  0  0  0  0  0  0  0  0  0
    3.7943   -3.4009   25.2905 Cl  0  0  0  0  0  0  0  0  0  0  0  0
    3.9197   -3.8301   28.2991 N   0  0  0  0  0  0  0  0  0  0  0  0
    3.7011   -4.8036   29.4749 C   0  0  0  0  0  0  0  0  0  0  0  0
    2.4658   -4.8002   30.4846 C   0  0  0  0  0  0  0  0  0  0  0  0
    2.5431   -3.8815   31.4800 C   0  0  0  0  0  0  0  0  0  0  0  0
    1.7448   -3.9175   32.6963 C   0  0  0  0  0  0  0  0  0  0  0  0
    0.8909   -4.9315   32.9198 C   0  0  0  0  0  0  0  0  0  0  0  0
    0.0682   -5.0754   34.4448 S   0  0  0  0  0  0  0  0  0  0  0  0
    1.2721   -5.9554   35.3860 C   0  0  0  0  0  0  0  0  0  0  0  0
    1.8834   -6.9393   34.8095 N   0  0  0  0  0  0  0  0  0  0  0  0
    2.7950   -7.6757   35.5407 C   0  0  0  0  0  0  0  0  0  0  0  0
    3.3701   -8.6302   35.0307 O   0  0  0  0  0  0  0  0  0  0  0  0
    2.9750   -7.2273   36.9014 C   0  0  0  0  0  0  0  0  0  0  0  0
    4.0262   -7.9481   38.0205 S   0  0  0  0  0  0  0  0  0  0  0  0
    3.5610   -6.8306   39.2432 C   0  0  0  0  0  0  0  0  0  0  0  0
    2.6204   -5.9238   38.7926 C   0  0  0  0  0  0  0  0  0  0  0  0
    2.2976   -6.1655   37.4382 C   0  0  0  0  0  0  0  0  0  0  0  0
    1.4281   -5.4911   36.6675 N   0  0  0  0  0  0  0  0  0  0  0  0
    0.7117   -5.8634   31.8961 N   0  0  0  0  0  0  0  0  0  0  0  0
   -0.1273   -6.9467   31.8052 C   0  0  0  0  0  0  0  0  0  0  0  0
   -0.0050   -7.5131   30.6290 N   0  0  0  0  0  0  0  0  0  0  0  0
    0.9778   -6.8278   29.9351 N   0  0  0  0  0  0  0  0  0  0  0  0
    1.4205   -5.8276   30.6783 C   0  0  0  0  0  0  0  0  0  0  0  0
    5.4492   -4.6815   26.7249 H   0  0  0  0  0  0  0  0  0  0  0  0
    8.4983   -8.7492   32.0154 H   0  0  0  0  0  0  0  0  0  0  0  0
    9.9404  -10.9147   32.5332 H   0  0  0  0  0  0  0  0  0  0  0  0
   10.2891  -12.3612   30.3588 H   0  0  0  0  0  0  0  0  0  0  0  0
    7.5657   -9.0681   27.3251 H   0  0  0  0  0  0  0  0  0  0  0  0
    8.2609   -6.7062   25.7328 H   0  0  0  0  0  0  0  0  0  0  0  0
    7.5073   -5.0942   25.7298 H   0  0  0  0  0  0  0  0  0  0  0  0
    7.0424   -6.9937   23.5746 H   0  0  0  0  0  0  0  0  0  0  0  0
    5.8181   -5.8183   24.0689 H   0  0  0  0  0  0  0  0  0  0  0  0
    4.7597   -7.8322   25.1317 H   0  0  0  0  0  0  0  0  0  0  0  0
    6.3401   -8.6004   25.3776 H   0  0  0  0  0  0  0  0  0  0  0  0
    1.1950   -5.1525   27.9106 H   0  0  0  0  0  0  0  0  0  0  0  0
    3.5018   -2.9372   28.5576 H   0  0  0  0  0  0  0  0  0  0  0  0
    3.8451   -5.8438   29.1658 H   0  0  0  0  0  0  0  0  0  0  0  0
    4.5843   -4.6150   30.1035 H   0  0  0  0  0  0  0  0  0  0  0  0
    3.3271   -3.1246   31.4657 H   0  0  0  0  0  0  0  0  0  0  0  0
    1.9380   -3.1459   33.4368 H   0  0  0  0  0  0  0  0  0  0  0  0
    4.0003   -6.8980   40.2296 H   0  0  0  0  0  0  0  0  0  0  0  0
    2.2028   -5.1433   39.4164 H   0  0  0  0  0  0  0  0  0  0  0  0
    0.8270   -4.7415   36.9898 H   0  0  0  0  0  0  0  0  0  0  0  0
   -0.7914   -7.2638   32.5970 H   0  0  0  0  0  0  0  0  0  0  0  0
  1  2  2  0
  2  3  1  0
  3  4  1  0
  4  5  1  0
  5  6  2  0
  6  7  1  0
  7  8  2  0
  8  9  1  0
  9 10  2  0
 10 11  1  0
 11 12  2  0
 12 13  1  0
  8 14  1  0
  4 15  1  0
 15 16  1  0
 16 17  1  0
  2 18  1  0
 18 19  1  0
 18 20  1  0
 18 21  1  0
 21 22  1  0
 22 23  1  0
 23 24  2  0
 24 25  1  0
 25 26  2  0
 26 27  1  0
 27 28  1  0
 28 29  2  0
 29 30  1  0
 30 31  2  0
 30 32  1  0
 32 33  1  0
 33 34  1  0
 34 35  2  0
 35 36  1  0
 36 37  1  0
 26 38  1  0
 38 39  1  0
 39 40  2  0
 40 41  1  0
 41 42  2  0
 17  4  1  0
 42 23  1  0
 14  5  1  0
 37 28  1  0
 42 38  1  0
 13  9  1  0
 36 32  2  0
  3 43  1  0
 10 44  1  0
 11 45  1  0
 12 46  1  0
 14 47  1  0
 15 48  1  0
 15 49  1  0
 16 50  1  0
 16 51  1  0
 17 52  1  0
 17 53  1  0
 19 54  1  0
 21 55  1  0
 22 56  1  0
 22 57  1  0
 24 58  1  0
 25 59  1  0
 34 60  1  0
 35 61  1  0
 37 62  1  0
 39 63  1  0
M  END
>  <Energy>  (420) 
71.909759796595011

>  <compound_id>  (420) 
2603

>  <target_id>  (420) 
1

>  <reference_id>  (420) 
175

>  <inspiration_ids>  (420) 
[175, 153]

>  <energy_score>  (420) 
-65.82613006248039

>  <distance_score>  (420) 
4.690768421173639

>  <path>  (420) 
/opt/xchem-fragalysis-2/maxwin/BulkDock/SCRATCH/505736/C2603-P175/C2603-P175.minimised.mol

>  <scratch_subdir>  (420) 
/opt/xchem-fragalysis-2/maxwin/BulkDock/SCRATCH/505736/C2603-P175

>  <fragmenstein_runtime>  (420) 
12.553838014602661

>  <fragmenstein_outcome>  (420) 
too moved

>  <fragmenstein_mode>  (420) 
expansion

>  <fragmenstein_error>  (420) 


$$$$
C2603-P153
     RDKit          3D

 63 69  0  0  0  0  0  0  0  0999 V2000
    5.5523   -6.5158   25.9728 O   0  0  0  0  0  0  0  0  0  0  0  0
    5.1633   -5.6767   26.6779 C   0  0  0  0  0  0  0  0  0  0  0  0
    5.9052   -4.8197   27.6997 N   0  0  0  0  0  0  0  0  0  0  0  0
    7.2446   -4.8702   28.1383 C   0  0  0  0  0  0  0  0  0  0  0  0
    7.3020   -6.0656   29.0700 C   0  0  0  0  0  0  0  0  0  0  0  0
    7.0761   -6.0782   30.3578 N   0  0  0  0  0  0  0  0  0  0  0  0
    7.5475   -7.2908   30.8064 N   0  0  0  0  0  0  0  0  0  0  0  0
    7.9672   -7.9714   29.7573 C   0  0  0  0  0  0  0  0  0  0  0  0
    8.9920   -8.9540   29.7409 C   0  0  0  0  0  0  0  0  0  0  0  0
    9.8577   -9.2121   30.7805 C   0  0  0  0  0  0  0  0  0  0  0  0
   10.9272  -10.0626   30.3878 C   0  0  0  0  0  0  0  0  0  0  0  0
   10.8248  -10.4411   29.0674 C   0  0  0  0  0  0  0  0  0  0  0  0
    9.4274   -9.8013   28.3184 S   0  0  0  0  0  0  0  0  0  0  0  0
    7.5372   -7.3400   28.6328 N   0  0  0  0  0  0  0  0  0  0  0  0
    7.8867   -3.5328   28.4481 C   0  0  0  0  0  0  0  0  0  0  0  0
    8.2624   -3.4696   26.9477 C   0  0  0  0  0  0  0  0  0  0  0  0
    8.2498   -5.0112   26.9809 C   0  0  0  0  0  0  0  0  0  0  0  0
    3.6557   -5.2814   26.8198 C   0  0  0  0  0  0  0  0  0  0  0  0
    2.9327   -6.9388   26.8747 S   0  0  0  0  0  0  0  0  0  0  0  0
    3.5128   -4.2018   25.3220 Cl  0  0  0  0  0  0  0  0  0  0  0  0
    3.4023   -4.6139   28.1601 N   0  0  0  0  0  0  0  0  0  0  0  0
    1.9912   -4.4802   28.6388 C   0  0  0  0  0  0  0  0  0  0  0  0
    1.6203   -4.9616   30.1021 C   0  0  0  0  0  0  0  0  0  0  0  0
    2.1456   -4.2310   31.1188 C   0  0  0  0  0  0  0  0  0  0  0  0
    1.7633   -4.3731   32.5183 C   0  0  0  0  0  0  0  0  0  0  0  0
    0.8236   -5.2652   32.8805 C   0  0  0  0  0  0  0  0  0  0  0  0
    0.2259   -5.3344   34.5126 S   0  0  0  0  0  0  0  0  0  0  0  0
    1.5569   -6.0868   35.3770 C   0  0  0  0  0  0  0  0  0  0  0  0
    2.1238   -7.1158   34.8349 N   0  0  0  0  0  0  0  0  0  0  0  0
    3.1379   -7.7531   35.5291 C   0  0  0  0  0  0  0  0  0  0  0  0
    3.6818   -8.7424   35.0555 O   0  0  0  0  0  0  0  0  0  0  0  0
    3.4503   -7.1689   36.8114 C   0  0  0  0  0  0  0  0  0  0  0  0
    4.6305   -7.7616   37.8755 S   0  0  0  0  0  0  0  0  0  0  0  0
    4.2739   -6.5316   39.0248 C   0  0  0  0  0  0  0  0  0  0  0  0
    3.2677   -5.6882   38.5931 C   0  0  0  0  0  0  0  0  0  0  0  0
    2.8069   -6.0699   37.3129 C   0  0  0  0  0  0  0  0  0  0  0  0
    1.8408   -5.4917   36.5805 N   0  0  0  0  0  0  0  0  0  0  0  0
    0.2849   -6.0760   31.8786 N   0  0  0  0  0  0  0  0  0  0  0  0
   -0.6452   -7.0847   31.9437 C   0  0  0  0  0  0  0  0  0  0  0  0
   -0.8495   -7.5898   30.7513 N   0  0  0  0  0  0  0  0  0  0  0  0
   -0.0266   -6.9180   29.8706 N   0  0  0  0  0  0  0  0  0  0  0  0
    0.6427   -5.9813   30.5190 C   0  0  0  0  0  0  0  0  0  0  0  0
    5.2671   -4.1207   28.0847 H   0  0  0  0  0  0  0  0  0  0  0  0
    9.7540   -8.7645   31.7632 H   0  0  0  0  0  0  0  0  0  0  0  0
   11.7377  -10.3728   31.0360 H   0  0  0  0  0  0  0  0  0  0  0  0
   11.4944  -11.0815   28.5093 H   0  0  0  0  0  0  0  0  0  0  0  0
    7.7563   -7.6063   27.6836 H   0  0  0  0  0  0  0  0  0  0  0  0
    8.7519   -3.5859   29.1204 H   0  0  0  0  0  0  0  0  0  0  0  0
    7.2254   -2.7341   28.7966 H   0  0  0  0  0  0  0  0  0  0  0  0
    9.2244   -3.0005   26.7261 H   0  0  0  0  0  0  0  0  0  0  0  0
    7.4866   -3.0112   26.3240 H   0  0  0  0  0  0  0  0  0  0  0  0
    9.2262   -5.4328   27.2574 H   0  0  0  0  0  0  0  0  0  0  0  0
    7.8866   -5.5620   26.1139 H   0  0  0  0  0  0  0  0  0  0  0  0
    3.6172   -7.3996   25.8045 H   0  0  0  0  0  0  0  0  0  0  0  0
    3.8386   -5.2558   28.8309 H   0  0  0  0  0  0  0  0  0  0  0  0
    1.2876   -4.8923   27.9380 H   0  0  0  0  0  0  0  0  0  0  0  0
    1.7765   -3.4026   28.6091 H   0  0  0  0  0  0  0  0  0  0  0  0
    2.8407   -3.4186   30.9069 H   0  0  0  0  0  0  0  0  0  0  0  0
    2.2155   -3.6835   33.2263 H   0  0  0  0  0  0  0  0  0  0  0  0
    4.8195   -6.4925   39.9584 H   0  0  0  0  0  0  0  0  0  0  0  0
    2.9007   -4.8547   39.1790 H   0  0  0  0  0  0  0  0  0  0  0  0
    1.2561   -4.7255   36.8947 H   0  0  0  0  0  0  0  0  0  0  0  0
   -1.1212   -7.4097   32.8585 H   0  0  0  0  0  0  0  0  0  0  0  0
  1  2  2  0
  2  3  1  0
  3  4  1  0
  4  5  1  0
  5  6  2  0
  6  7  1  0
  7  8  2  0
  8  9  1  0
  9 10  2  0
 10 11  1  0
 11 12  2  0
 12 13  1  0
  8 14  1  0
  4 15  1  0
 15 16  1  0
 16 17  1  0
  2 18  1  0
 18 19  1  0
 18 20  1  0
 18 21  1  0
 21 22  1  0
 22 23  1  0
 23 24  2  0
 24 25  1  0
 25 26  2  0
 26 27  1  0
 27 28  1  0
 28 29  2  0
 29 30  1  0
 30 31  2  0
 30 32  1  0
 32 33  1  0
 33 34  1  0
 34 35  2  0
 35 36  1  0
 36 37  1  0
 26 38  1  0
 38 39  1  0
 39 40  2  0
 40 41  1  0
 41 42  2  0
 17  4  1  0
 42 23  1  0
 14  5  1  0
 37 28  1  0
 42 38  1  0
 13  9  1  0
 36 32  2  0
  3 43  1  0
 10 44  1  0
 11 45  1  0
 12 46  1  0
 14 47  1  0
 15 48  1  0
 15 49  1  0
 16 50  1  0
 16 51  1  0
 17 52  1  0
 17 53  1  0
 19 54  1  0
 21 55  1  0
 22 56  1  0
 22 57  1  0
 24 58  1  0
 25 59  1  0
 34 60  1  0
 35 61  1  0
 37 62  1  0
 39 63  1  0
M  END
>  <Energy>  (421) 
65.861807160369239

>  <compound_id>  (421) 
2603

>  <target_id>  (421) 
1

>  <reference_id>  (421) 
153

>  <inspiration_ids>  (421) 
[175, 153]

>  <energy_score>  (421) 
-71.87408269870099

>  <distance_score>  (421) 
4.958248702072575

>  <path>  (421) 
/opt/xchem-fragalysis-2/maxwin/BulkDock/SCRATCH/505736/C2603-P153/C2603-P153.minimised.mol

>  <scratch_subdir>  (421) 
/opt/xchem-fragalysis-2/maxwin/BulkDock/SCRATCH/505736/C2603-P153

>  <fragmenstein_runtime>  (421) 
11.639910459518433

>  <fragmenstein_outcome>  (421) 
too moved

>  <fragmenstein_mode>  (421) 
expansion

>  <fragmenstein_error>  (421) 


$$$$
C2603-P175
     RDKit          2D

  0  0  0  0  0  0  0  0  0  0999 V2000
M  END
>  <compound_id>  (422) 
2603

>  <target_id>  (422) 
1

>  <reference_id>  (422) 
175

>  <inspiration_ids>  (422) 
[175, 154]

>  <energy_score>  (422) 
nan

>  <distance_score>  (422) 
nan

>  <path>  (422) 
/opt/xchem-fragalysis-2/maxwin/BulkDock/SCRATCH/505736/C2603-P175/C2603-P175.minimised.mol

>  <scratch_subdir>  (422) 
/opt/xchem-fragalysis-2/maxwin/BulkDock/SCRATCH/505736/C2603-P175

>  <fragmenstein_runtime>  (422) 
0.27254605293273926

>  <fragmenstein_outcome>  (422) 
too distant

>  <fragmenstein_mode>  (422) 
expansion

>  <fragmenstein_error>  (422) 
DistanceError: hit0+hit1

$$$$
C2515-P175
     RDKit          3D

 71 76  0  0  0  0  0  0  0  0999 V2000
    6.5900   -3.4906   27.7319 O   0  0  0  0  0  0  0  0  0  0  0  0
    5.6447   -3.9286   27.1384 C   0  0  0  0  0  0  0  0  0  0  0  0
    5.3932   -5.2478   26.6073 N   0  0  0  0  0  0  0  0  0  0  0  0
    6.2433   -6.4288   26.5411 C   0  0  0  0  0  0  0  0  0  0  0  0
    6.5484   -7.0443   27.9232 C   0  0  0  0  0  0  0  0  0  0  0  0
    6.2378   -6.5139   29.0844 N   0  0  0  0  0  0  0  0  0  0  0  0
    6.9522   -7.1948   30.0417 N   0  0  0  0  0  0  0  0  0  0  0  0
    7.5795   -8.1973   29.4614 C   0  0  0  0  0  0  0  0  0  0  0  0
    8.3769   -9.1924   30.1041 C   0  0  0  0  0  0  0  0  0  0  0  0
    8.6998   -9.2597   31.4445 C   0  0  0  0  0  0  0  0  0  0  0  0
    9.4915  -10.4035   31.7583 C   0  0  0  0  0  0  0  0  0  0  0  0
    9.7503  -11.1724   30.6461 C   0  0  0  0  0  0  0  0  0  0  0  0
    9.0504  -10.5086   29.2369 S   0  0  0  0  0  0  0  0  0  0  0  0
    7.3307   -8.1452   28.1231 N   0  0  0  0  0  0  0  0  0  0  0  0
    7.5224   -6.2305   25.7075 C   0  0  0  0  0  0  0  0  0  0  0  0
    6.6684   -6.5756   24.4801 C   0  0  0  0  0  0  0  0  0  0  0  0
    5.7775   -7.4052   25.4315 C   0  0  0  0  0  0  0  0  0  0  0  0
    4.4070   -3.0392   26.9139 C   0  0  0  0  0  0  0  0  0  0  0  0
    4.4799   -2.4290   25.2215 Cl  0  0  0  0  0  0  0  0  0  0  0  0
    2.8397   -3.9684   27.2542 S   0  0  0  0  0  0  0  0  0  0  0  0
    3.2731   -4.7868   28.8450 C   0  0  0  0  0  0  0  0  0  0  0  0
    2.2167   -4.6603   29.9394 C   0  0  0  0  0  0  0  0  0  0  0  0
    1.9857   -3.3194   30.4160 N   0  0  0  0  0  0  0  0  0  0  0  0
    0.7279   -2.8310   30.4447 N   0  0  0  0  0  0  0  0  0  0  0  0
    0.7873   -1.5685   30.8586 N   0  0  0  0  0  0  0  0  0  0  0  0
    2.0897   -1.2876   31.1339 C   0  0  0  0  0  0  0  0  0  0  0  0
    2.8617   -2.4076   30.9160 C   0  0  0  0  0  0  0  0  0  0  0  0
    4.3292   -2.4798   31.1172 C   0  0  0  0  0  0  0  0  0  0  0  0
    4.8085   -1.2143   31.8707 C   0  0  0  0  0  0  0  0  0  0  0  0
    4.0945   -0.0091   31.3771 N   0  0  0  0  0  0  0  0  0  0  0  0
    4.8997    1.3943   31.0248 S   0  0  0  0  0  0  0  0  0  0  0  0
    4.0164    2.5033   31.2979 O   0  0  0  0  0  0  0  0  0  0  0  0
    6.2224    1.3242   31.5983 O   0  0  0  0  0  0  0  0  0  0  0  0
    5.0422    1.2417   29.3623 N   0  0  0  0  0  0  0  0  0  0  0  0
    6.0049    0.2521   28.8239 C   0  0  0  0  0  0  0  0  0  0  0  0
    6.3258    0.5791   27.3538 C   0  0  0  0  0  0  0  0  0  0  0  0
    5.1557    0.7703   26.4839 N   0  0  0  0  0  0  0  0  0  0  0  0
    4.1815    1.6832   27.0927 C   0  0  0  0  0  0  0  0  0  0  0  0
    3.8093    1.3303   28.5428 C   0  0  0  0  0  0  0  0  0  0  0  0
    2.6226    0.0296   31.5692 C   0  0  0  0  0  0  0  0  0  0  0  0
    4.5177   -5.2353   26.0895 H   0  0  0  0  0  0  0  0  0  0  0  0
    8.3750   -8.5239   32.1713 H   0  0  0  0  0  0  0  0  0  0  0  0
    9.8474  -10.6518   32.7510 H   0  0  0  0  0  0  0  0  0  0  0  0
   10.3162  -12.0934   30.5948 H   0  0  0  0  0  0  0  0  0  0  0  0
    7.7401   -8.7450   27.4220 H   0  0  0  0  0  0  0  0  0  0  0  0
    7.9409   -5.2328   25.7945 H   0  0  0  0  0  0  0  0  0  0  0  0
    8.3324   -6.9505   25.8773 H   0  0  0  0  0  0  0  0  0  0  0  0
    7.1669   -7.1412   23.7069 H   0  0  0  0  0  0  0  0  0  0  0  0
    6.1855   -5.7033   24.0376 H   0  0  0  0  0  0  0  0  0  0  0  0
    6.1083   -8.4437   25.5499 H   0  0  0  0  0  0  0  0  0  0  0  0
    4.7108   -7.4088   25.1881 H   0  0  0  0  0  0  0  0  0  0  0  0
    4.4399   -2.1774   27.5819 H   0  0  0  0  0  0  0  0  0  0  0  0
    4.2329   -4.4264   29.2152 H   0  0  0  0  0  0  0  0  0  0  0  0
    3.4003   -5.8512   28.6190 H   0  0  0  0  0  0  0  0  0  0  0  0
    2.5248   -5.2453   30.8141 H   0  0  0  0  0  0  0  0  0  0  0  0
    1.2609   -5.0749   29.5998 H   0  0  0  0  0  0  0  0  0  0  0  0
    4.8261   -2.5137   30.1435 H   0  0  0  0  0  0  0  0  0  0  0  0
    4.6136   -3.3784   31.6740 H   0  0  0  0  0  0  0  0  0  0  0  0
    4.6099   -1.3165   32.9448 H   0  0  0  0  0  0  0  0  0  0  0  0
    5.8922   -1.1289   31.7471 H   0  0  0  0  0  0  0  0  0  0  0  0
    6.9400    0.2722   29.3920 H   0  0  0  0  0  0  0  0  0  0  0  0
    5.5805   -0.7511   28.8974 H   0  0  0  0  0  0  0  0  0  0  0  0
    6.9521   -0.2181   26.9387 H   0  0  0  0  0  0  0  0  0  0  0  0
    6.9266    1.4966   27.3168 H   0  0  0  0  0  0  0  0  0  0  0  0
    4.7167   -0.1194   26.2560 H   0  0  0  0  0  0  0  0  0  0  0  0
    4.5945    2.6993   27.0630 H   0  0  0  0  0  0  0  0  0  0  0  0
    3.2761    1.6967   26.4759 H   0  0  0  0  0  0  0  0  0  0  0  0
    3.1428    2.1092   28.9256 H   0  0  0  0  0  0  0  0  0  0  0  0
    3.2767    0.3728   28.5682 H   0  0  0  0  0  0  0  0  0  0  0  0
    2.1577    0.8131   30.9641 H   0  0  0  0  0  0  0  0  0  0  0  0
    2.3926    0.2065   32.6244 H   0  0  0  0  0  0  0  0  0  0  0  0
  1  2  2  0
  2  3  1  0
  3  4  1  0
  4  5  1  0
  5  6  2  0
  6  7  1  0
  7  8  2  0
  8  9  1  0
  9 10  2  0
 10 11  1  0
 11 12  2  0
 12 13  1  0
  8 14  1  0
  4 15  1  0
 15 16  1  0
 16 17  1  0
  2 18  1  0
 18 19  1  0
 18 20  1  0
 20 21  1  0
 21 22  1  0
 22 23  1  0
 23 24  1  0
 24 25  2  0
 25 26  1  0
 26 27  2  0
 27 28  1  0
 28 29  1  0
 29 30  1  0
 30 31  1  0
 31 32  2  0
 31 33  2  0
 31 34  1  0
 34 35  1  0
 35 36  1  0
 36 37  1  0
 37 38  1  0
 38 39  1  0
 30 40  1  0
 17  4  1  0
 27 23  1  0
 39 34  1  0
 14  5  1  0
 40 26  1  0
 13  9  1  0
  3 41  1  0
 10 42  1  0
 11 43  1  0
 12 44  1  0
 14 45  1  0
 15 46  1  0
 15 47  1  0
 16 48  1  0
 16 49  1  0
 17 50  1  0
 17 51  1  0
 18 52  1  0
 21 53  1  0
 21 54  1  0
 22 55  1  0
 22 56  1  0
 28 57  1  0
 28 58  1  0
 29 59  1  0
 29 60  1  0
 35 61  1  0
 35 62  1  0
 36 63  1  0
 36 64  1  0
 37 65  1  0
 38 66  1  0
 38 67  1  0
 39 68  1  0
 39 69  1  0
 40 70  1  0
 40 71  1  0
M  END
>  <Energy>  (423) 
-36.492726156672859

>  <compound_id>  (423) 
2515

>  <target_id>  (423) 
1

>  <reference_id>  (423) 
175

>  <inspiration_ids>  (423) 
[175, 155]

>  <energy_score>  (423) 
-99.63614415085169

>  <distance_score>  (423) 
5.297149132138653

>  <path>  (423) 
/opt/xchem-fragalysis-2/maxwin/BulkDock/SCRATCH/505736/C2515-P175/C2515-P175.minimised.mol

>  <scratch_subdir>  (423) 
/opt/xchem-fragalysis-2/maxwin/BulkDock/SCRATCH/505736/C2515-P175

>  <fragmenstein_runtime>  (423) 
24.151220560073853

>  <fragmenstein_outcome>  (423) 
too moved

>  <fragmenstein_mode>  (423) 
expansion

>  <fragmenstein_error>  (423) 


$$$$
C2515-P155
     RDKit          3D

 71 76  0  0  0  0  0  0  0  0999 V2000
    2.0204   -4.6956   25.6847 O   0  0  0  0  0  0  0  0  0  0  0  0
    2.6353   -3.9463   24.9847 C   0  0  0  0  0  0  0  0  0  0  0  0
    3.8947   -3.3092   25.1909 N   0  0  0  0  0  0  0  0  0  0  0  0
    4.8789   -3.4463   26.2798 C   0  0  0  0  0  0  0  0  0  0  0  0
    5.2127   -4.9771   26.6383 C   0  0  0  0  0  0  0  0  0  0  0  0
    4.4957   -5.6790   27.4953 N   0  0  0  0  0  0  0  0  0  0  0  0
    5.1989   -6.8103   27.8199 N   0  0  0  0  0  0  0  0  0  0  0  0
    6.3302   -6.7983   27.1424 C   0  0  0  0  0  0  0  0  0  0  0  0
    7.3827   -7.7576   27.3256 C   0  0  0  0  0  0  0  0  0  0  0  0
    7.4810   -8.6665   28.3661 C   0  0  0  0  0  0  0  0  0  0  0  0
    8.6387   -9.4925   28.2825 C   0  0  0  0  0  0  0  0  0  0  0  0
    9.3963   -9.1879   27.1757 C   0  0  0  0  0  0  0  0  0  0  0  0
    8.7092   -7.9162   26.2557 S   0  0  0  0  0  0  0  0  0  0  0  0
    6.3390   -5.6974   26.3134 N   0  0  0  0  0  0  0  0  0  0  0  0
    4.4212   -2.6919   27.5683 C   0  0  0  0  0  0  0  0  0  0  0  0
    5.9112   -2.3902   27.8173 C   0  0  0  0  0  0  0  0  0  0  0  0
    6.0960   -2.5041   26.2932 C   0  0  0  0  0  0  0  0  0  0  0  0
    1.7292   -3.7473   23.2519 C   0  0  0  0  0  0  0  0  0  0  0  0
    0.6962   -2.8293   22.2736 Cl  0  0  0  0  0  0  0  0  0  0  0  0
    0.4716   -5.1377   23.2510 S   0  0  0  0  0  0  0  0  0  0  0  0
   -1.2002   -5.3486   24.7253 C   0  0  0  0  0  0  0  0  0  0  0  0
   -1.2961   -5.6253   26.4301 C   0  0  0  0  0  0  0  0  0  0  0  0
   -0.8868   -5.0557   27.7629 N   0  0  0  0  0  0  0  0  0  0  0  0
   -0.9154   -6.0022   28.7975 N   0  0  0  0  0  0  0  0  0  0  0  0
   -0.1003   -5.6185   29.7735 N   0  0  0  0  0  0  0  0  0  0  0  0
    0.3013   -4.3599   29.4861 C   0  0  0  0  0  0  0  0  0  0  0  0
   -0.3750   -3.9075   28.3611 C   0  0  0  0  0  0  0  0  0  0  0  0
   -0.4686   -2.4430   28.1111 C   0  0  0  0  0  0  0  0  0  0  0  0
   -0.1150   -1.6691   29.3984 C   0  0  0  0  0  0  0  0  0  0  0  0
    1.2299   -2.1275   29.8453 N   0  0  0  0  0  0  0  0  0  0  0  0
    2.1937   -1.0563   30.6864 S   0  0  0  0  0  0  0  0  0  0  0  0
    1.3489   -0.0808   31.3355 O   0  0  0  0  0  0  0  0  0  0  0  0
    3.1734   -1.8102   31.4339 O   0  0  0  0  0  0  0  0  0  0  0  0
    3.0312   -0.2685   29.4257 N   0  0  0  0  0  0  0  0  0  0  0  0
    4.1740    0.5562   29.9337 C   0  0  0  0  0  0  0  0  0  0  0  0
    5.0282    1.1507   28.7897 C   0  0  0  0  0  0  0  0  0  0  0  0
    4.4093    1.1564   27.4533 N   0  0  0  0  0  0  0  0  0  0  0  0
    2.9941    1.5088   27.6133 C   0  0  0  0  0  0  0  0  0  0  0  0
    2.1897    0.4907   28.4492 C   0  0  0  0  0  0  0  0  0  0  0  0
    1.1906   -3.5329   30.3696 C   0  0  0  0  0  0  0  0  0  0  0  0
    4.0715   -2.6718   24.4203 H   0  0  0  0  0  0  0  0  0  0  0  0
    6.7461   -8.7408   29.1576 H   0  0  0  0  0  0  0  0  0  0  0  0
    8.8937  -10.2703   28.9937 H   0  0  0  0  0  0  0  0  0  0  0  0
   10.3206   -9.6526   26.8610 H   0  0  0  0  0  0  0  0  0  0  0  0
    7.0972   -5.4077   25.7068 H   0  0  0  0  0  0  0  0  0  0  0  0
    3.9233   -3.2703   28.3513 H   0  0  0  0  0  0  0  0  0  0  0  0
    3.8046   -1.8142   27.3552 H   0  0  0  0  0  0  0  0  0  0  0  0
    6.4355   -3.1611   28.3946 H   0  0  0  0  0  0  0  0  0  0  0  0
    6.1494   -1.4238   28.2541 H   0  0  0  0  0  0  0  0  0  0  0  0
    7.0618   -2.9140   25.9935 H   0  0  0  0  0  0  0  0  0  0  0  0
    5.9266   -1.5540   25.7765 H   0  0  0  0  0  0  0  0  0  0  0  0
    2.5412   -3.6158   22.5824 H   0  0  0  0  0  0  0  0  0  0  0  0
   -1.5768   -6.3126   24.3694 H   0  0  0  0  0  0  0  0  0  0  0  0
   -1.9720   -4.6868   24.3428 H   0  0  0  0  0  0  0  0  0  0  0  0
   -2.2724   -5.9598   26.6122 H   0  0  0  0  0  0  0  0  0  0  0  0
   -1.1709   -6.7037   26.4990 H   0  0  0  0  0  0  0  0  0  0  0  0
   -1.4723   -2.1337   27.8149 H   0  0  0  0  0  0  0  0  0  0  0  0
    0.2856   -2.1444   27.3853 H   0  0  0  0  0  0  0  0  0  0  0  0
   -0.1356   -0.5998   29.1800 H   0  0  0  0  0  0  0  0  0  0  0  0
   -0.8541   -1.8539   30.1885 H   0  0  0  0  0  0  0  0  0  0  0  0
    3.7705    1.3748   30.5430 H   0  0  0  0  0  0  0  0  0  0  0  0
    4.8271   -0.0546   30.5658 H   0  0  0  0  0  0  0  0  0  0  0  0
    5.9869    0.6276   28.7285 H   0  0  0  0  0  0  0  0  0  0  0  0
    5.2940    2.1813   29.0582 H   0  0  0  0  0  0  0  0  0  0  0  0
    4.4435    0.1998   27.1008 H   0  0  0  0  0  0  0  0  0  0  0  0
    2.9218    2.5013   28.0771 H   0  0  0  0  0  0  0  0  0  0  0  0
    2.5325    1.6114   26.6256 H   0  0  0  0  0  0  0  0  0  0  0  0
    1.3854    1.0295   28.9592 H   0  0  0  0  0  0  0  0  0  0  0  0
    1.7540   -0.2377   27.7578 H   0  0  0  0  0  0  0  0  0  0  0  0
    2.1961   -3.9654   30.3494 H   0  0  0  0  0  0  0  0  0  0  0  0
    0.8019   -3.5398   31.3935 H   0  0  0  0  0  0  0  0  0  0  0  0
  1  2  2  0
  2  3  1  0
  3  4  1  0
  4  5  1  0
  5  6  2  0
  6  7  1  0
  7  8  2  0
  8  9  1  0
  9 10  2  0
 10 11  1  0
 11 12  2  0
 12 13  1  0
  8 14  1  0
  4 15  1  0
 15 16  1  0
 16 17  1  0
  2 18  1  0
 18 19  1  0
 18 20  1  0
 20 21  1  0
 21 22  1  0
 22 23  1  0
 23 24  1  0
 24 25  2  0
 25 26  1  0
 26 27  2  0
 27 28  1  0
 28 29  1  0
 29 30  1  0
 30 31  1  0
 31 32  2  0
 31 33  2  0
 31 34  1  0
 34 35  1  0
 35 36  1  0
 36 37  1  0
 37 38  1  0
 38 39  1  0
 30 40  1  0
 17  4  1  0
 27 23  1  0
 39 34  1  0
 14  5  1  0
 40 26  1  0
 13  9  1  0
  3 41  1  0
 10 42  1  0
 11 43  1  0
 12 44  1  0
 14 45  1  0
 15 46  1  0
 15 47  1  0
 16 48  1  0
 16 49  1  0
 17 50  1  0
 17 51  1  0
 18 52  1  0
 21 53  1  0
 21 54  1  0
 22 55  1  0
 22 56  1  0
 28 57  1  0
 28 58  1  0
 29 59  1  0
 29 60  1  0
 35 61  1  0
 35 62  1  0
 36 63  1  0
 36 64  1  0
 37 65  1  0
 38 66  1  0
 38 67  1  0
 39 68  1  0
 39 69  1  0
 40 70  1  0
 40 71  1  0
M  END
>  <Energy>  (424) 
205.117282177145

>  <compound_id>  (424) 
2515

>  <target_id>  (424) 
1

>  <reference_id>  (424) 
155

>  <inspiration_ids>  (424) 
[175, 155]

>  <energy_score>  (424) 
141.97386418296662

>  <distance_score>  (424) 
5.578236780779023

>  <path>  (424) 
/opt/xchem-fragalysis-2/maxwin/BulkDock/SCRATCH/505736/C2515-P155/C2515-P155.minimised.mol

>  <scratch_subdir>  (424) 
/opt/xchem-fragalysis-2/maxwin/BulkDock/SCRATCH/505736/C2515-P155

>  <fragmenstein_runtime>  (424) 
22.76474380493164

>  <fragmenstein_outcome>  (424) 
too moved

>  <fragmenstein_mode>  (424) 
expansion

>  <fragmenstein_error>  (424) 


$$$$
C2604-P175
     RDKit          3D

 64 70  0  0  0  0  0  0  0  0999 V2000
    2.9446   -4.4207   25.9837 O   0  0  0  0  0  0  0  0  0  0  0  0
    4.0773   -4.0977   26.2345 C   0  0  0  0  0  0  0  0  0  0  0  0
    5.2766   -4.8877   26.3460 N   0  0  0  0  0  0  0  0  0  0  0  0
    5.4805   -6.3242   26.2872 C   0  0  0  0  0  0  0  0  0  0  0  0
    6.2335   -6.7883   27.5748 C   0  0  0  0  0  0  0  0  0  0  0  0
    6.0774   -6.2325   28.7577 N   0  0  0  0  0  0  0  0  0  0  0  0
    6.8490   -6.9358   29.6515 N   0  0  0  0  0  0  0  0  0  0  0  0
    7.4242   -7.9291   29.0055 C   0  0  0  0  0  0  0  0  0  0  0  0
    8.2267   -8.9564   29.5901 C   0  0  0  0  0  0  0  0  0  0  0  0
    8.6597   -9.0217   30.8999 C   0  0  0  0  0  0  0  0  0  0  0  0
    9.4158  -10.2000   31.1682 C   0  0  0  0  0  0  0  0  0  0  0  0
    9.5366  -10.9979   30.0532 C   0  0  0  0  0  0  0  0  0  0  0  0
    8.7472  -10.3214   28.6963 S   0  0  0  0  0  0  0  0  0  0  0  0
    7.0937   -7.8420   27.6823 N   0  0  0  0  0  0  0  0  0  0  0  0
    6.0280   -6.8489   24.9471 C   0  0  0  0  0  0  0  0  0  0  0  0
    4.9795   -7.9785   25.0149 C   0  0  0  0  0  0  0  0  0  0  0  0
    4.2023   -7.1570   26.0310 C   0  0  0  0  0  0  0  0  0  0  0  0
    4.3436   -2.5562   26.6156 C   0  0  0  0  0  0  0  0  0  0  0  0
    5.8444   -2.3847   27.6075 S   0  0  0  0  0  0  0  0  0  0  0  0
    4.4714   -1.6764   25.0582 Cl  0  0  0  0  0  0  0  0  0  0  0  0
    3.1494   -2.1553   27.3471 N   0  0  0  0  0  0  0  0  0  0  0  0
    3.1010   -0.8813   28.0221 C   0  0  0  0  0  0  0  0  0  0  0  0
    1.7946   -0.8431   28.6837 N   0  0  0  0  0  0  0  0  0  0  0  0
    1.3613   -1.6123   29.7469 C   0  0  0  0  0  0  0  0  0  0  0  0
    2.3905   -2.7311   30.6005 S   0  0  0  0  0  0  0  0  0  0  0  0
    1.1920   -3.6471   31.4748 C   0  0  0  0  0  0  0  0  0  0  0  0
    0.5788   -3.1501   32.5696 C   0  0  0  0  0  0  0  0  0  0  0  0
   -0.3726   -3.9746   33.3011 C   0  0  0  0  0  0  0  0  0  0  0  0
   -0.6397   -5.2415   32.9342 C   0  0  0  0  0  0  0  0  0  0  0  0
    0.0017   -5.7854   31.7947 C   0  0  0  0  0  0  0  0  0  0  0  0
   -0.0607   -6.9690   31.2215 N   0  0  0  0  0  0  0  0  0  0  0  0
    0.7965   -6.9572   30.1497 N   0  0  0  0  0  0  0  0  0  0  0  0
    1.3487   -5.7636   30.0921 C   0  0  0  0  0  0  0  0  0  0  0  0
    0.8907   -4.9677   31.1058 N   0  0  0  0  0  0  0  0  0  0  0  0
    0.0985   -1.3864   30.0276 N   0  0  0  0  0  0  0  0  0  0  0  0
   -0.3143   -0.4407   29.1251 C   0  0  0  0  0  0  0  0  0  0  0  0
   -1.5803    0.1391   28.9717 C   0  0  0  0  0  0  0  0  0  0  0  0
   -1.7424    1.1036   27.9801 C   0  0  0  0  0  0  0  0  0  0  0  0
   -2.9441    1.6735   27.8122 F   0  0  0  0  0  0  0  0  0  0  0  0
   -0.6897    1.5004   27.1611 C   0  0  0  0  0  0  0  0  0  0  0  0
    0.5790    0.9283   27.2971 C   0  0  0  0  0  0  0  0  0  0  0  0
    0.7322   -0.0509   28.2893 C   0  0  0  0  0  0  0  0  0  0  0  0
    6.0720   -4.2648   26.4892 H   0  0  0  0  0  0  0  0  0  0  0  0
    8.4354   -8.2589   31.6374 H   0  0  0  0  0  0  0  0  0  0  0  0
    9.8427  -10.4513   32.1318 H   0  0  0  0  0  0  0  0  0  0  0  0
   10.0478  -11.9482   29.9726 H   0  0  0  0  0  0  0  0  0  0  0  0
    7.3873   -8.4747   26.9525 H   0  0  0  0  0  0  0  0  0  0  0  0
    7.0700   -7.1826   24.9320 H   0  0  0  0  0  0  0  0  0  0  0  0
    5.8906   -6.1676   24.1043 H   0  0  0  0  0  0  0  0  0  0  0  0
    4.4049   -8.1701   24.1068 H   0  0  0  0  0  0  0  0  0  0  0  0
    5.3713   -8.9228   25.4014 H   0  0  0  0  0  0  0  0  0  0  0  0
    3.3807   -6.6312   25.5490 H   0  0  0  0  0  0  0  0  0  0  0  0
    3.7900   -7.7145   26.8724 H   0  0  0  0  0  0  0  0  0  0  0  0
    5.4658   -3.2420   28.5697 H   0  0  0  0  0  0  0  0  0  0  0  0
    2.3484   -2.2615   26.7253 H   0  0  0  0  0  0  0  0  0  0  0  0
    3.1755   -0.0390   27.3301 H   0  0  0  0  0  0  0  0  0  0  0  0
    3.8472   -0.7587   28.8126 H   0  0  0  0  0  0  0  0  0  0  0  0
    0.7589   -2.1417   32.9306 H   0  0  0  0  0  0  0  0  0  0  0  0
   -0.8667   -3.5359   34.1650 H   0  0  0  0  0  0  0  0  0  0  0  0
   -1.3368   -5.8576   33.4911 H   0  0  0  0  0  0  0  0  0  0  0  0
    2.0621   -5.4290   29.3526 H   0  0  0  0  0  0  0  0  0  0  0  0
   -2.4101   -0.1577   29.6002 H   0  0  0  0  0  0  0  0  0  0  0  0
   -0.8676    2.2586   26.4040 H   0  0  0  0  0  0  0  0  0  0  0  0
    1.3919    1.2295   26.6453 H   0  0  0  0  0  0  0  0  0  0  0  0
  1  2  2  0
  2  3  1  0
  3  4  1  0
  4  5  1  0
  5  6  2  0
  6  7  1  0
  7  8  2  0
  8  9  1  0
  9 10  2  0
 10 11  1  0
 11 12  2  0
 12 13  1  0
  8 14  1  0
  4 15  1  0
 15 16  1  0
 16 17  1  0
  2 18  1  0
 18 19  1  0
 18 20  1  0
 18 21  1  0
 21 22  1  0
 22 23  1  0
 23 24  1  0
 24 25  1  0
 25 26  1  0
 26 27  2  0
 27 28  1  0
 28 29  2  0
 29 30  1  0
 30 31  2  0
 31 32  1  0
 32 33  2  0
 33 34  1  0
 24 35  2  0
 35 36  1  0
 36 37  2  0
 37 38  1  0
 38 39  1  0
 38 40  2  0
 40 41  1  0
 41 42  2  0
 17  4  1  0
 42 23  1  0
 14  5  1  0
 34 26  1  0
 42 36  1  0
 13  9  1  0
 34 30  1  0
  3 43  1  0
 10 44  1  0
 11 45  1  0
 12 46  1  0
 14 47  1  0
 15 48  1  0
 15 49  1  0
 16 50  1  0
 16 51  1  0
 17 52  1  0
 17 53  1  0
 19 54  1  0
 21 55  1  0
 22 56  1  0
 22 57  1  0
 27 58  1  0
 28 59  1  0
 29 60  1  0
 33 61  1  0
 37 62  1  0
 40 63  1  0
 41 64  1  0
M  END
>  <Energy>  (425) 
73.230685916643651

>  <compound_id>  (425) 
2604

>  <target_id>  (425) 
1

>  <reference_id>  (425) 
175

>  <inspiration_ids>  (425) 
[175, 156]

>  <energy_score>  (425) 
-79.73864605477957

>  <distance_score>  (425) 
5.325629732874122

>  <path>  (425) 
/opt/xchem-fragalysis-2/maxwin/BulkDock/SCRATCH/505736/C2604-P175/C2604-P175.minimised.mol

>  <scratch_subdir>  (425) 
/opt/xchem-fragalysis-2/maxwin/BulkDock/SCRATCH/505736/C2604-P175

>  <fragmenstein_runtime>  (425) 
24.128056049346924

>  <fragmenstein_outcome>  (425) 
too moved

>  <fragmenstein_mode>  (425) 
expansion

>  <fragmenstein_error>  (425) 


$$$$
C2604-P156
     RDKit          3D

 64 70  0  0  0  0  0  0  0  0999 V2000
    0.6384   -6.6126   23.0517 O   0  0  0  0  0  0  0  0  0  0  0  0
    1.0754   -5.9492   23.9766 C   0  0  0  0  0  0  0  0  0  0  0  0
    2.4554   -6.2935   25.2501 N   0  0  0  0  0  0  0  0  0  0  0  0
    3.4458   -7.4332   25.3864 C   0  0  0  0  0  0  0  0  0  0  0  0
    3.8611   -7.5136   26.9978 C   0  0  0  0  0  0  0  0  0  0  0  0
    3.3229   -6.8014   27.9691 N   0  0  0  0  0  0  0  0  0  0  0  0
    4.3282   -6.5371   28.9018 N   0  0  0  0  0  0  0  0  0  0  0  0
    5.4368   -7.1474   28.5300 C   0  0  0  0  0  0  0  0  0  0  0  0
    6.7321   -7.1587   29.1455 C   0  0  0  0  0  0  0  0  0  0  0  0
    7.1953   -6.3607   30.1719 C   0  0  0  0  0  0  0  0  0  0  0  0
    8.5255   -6.6941   30.5709 C   0  0  0  0  0  0  0  0  0  0  0  0
    9.0525   -7.7175   29.8172 C   0  0  0  0  0  0  0  0  0  0  0  0
    7.9478   -8.2733   28.6410 S   0  0  0  0  0  0  0  0  0  0  0  0
    5.1440   -7.8690   27.4128 N   0  0  0  0  0  0  0  0  0  0  0  0
    4.9315   -6.4951   25.2221 C   0  0  0  0  0  0  0  0  0  0  0  0
    5.4920   -7.6260   24.4847 C   0  0  0  0  0  0  0  0  0  0  0  0
    4.1156   -8.4171   24.5259 C   0  0  0  0  0  0  0  0  0  0  0  0
    0.7905   -4.7024   24.3511 C   0  0  0  0  0  0  0  0  0  0  0  0
    2.8090   -4.1637   25.6396 S   0  0  0  0  0  0  0  0  0  0  0  0
    1.1486   -3.5825   22.8905 Cl  0  0  0  0  0  0  0  0  0  0  0  0
   -0.4809   -5.1411   25.4822 N   0  0  0  0  0  0  0  0  0  0  0  0
   -0.7048   -4.5315   27.2711 C   0  0  0  0  0  0  0  0  0  0  0  0
    0.3870   -4.4959   28.4067 N   0  0  0  0  0  0  0  0  0  0  0  0
    0.7575   -3.2342   28.9147 C   0  0  0  0  0  0  0  0  0  0  0  0
    2.4658   -2.8099   29.0710 S   0  0  0  0  0  0  0  0  0  0  0  0
    2.4577   -2.6002   30.8145 C   0  0  0  0  0  0  0  0  0  0  0  0
    2.2844   -1.3775   31.3572 C   0  0  0  0  0  0  0  0  0  0  0  0
    2.1122   -1.2482   32.7973 C   0  0  0  0  0  0  0  0  0  0  0  0
    2.0884   -2.3225   33.6081 C   0  0  0  0  0  0  0  0  0  0  0  0
    2.2742   -3.6145   33.0577 C   0  0  0  0  0  0  0  0  0  0  0  0
    2.2581   -4.8193   33.5890 N   0  0  0  0  0  0  0  0  0  0  0  0
    2.4959   -5.7212   32.5850 N   0  0  0  0  0  0  0  0  0  0  0  0
    2.6623   -5.0375   31.4746 C   0  0  0  0  0  0  0  0  0  0  0  0
    2.4892   -3.7011   31.6887 N   0  0  0  0  0  0  0  0  0  0  0  0
   -0.1379   -2.8630   29.8119 N   0  0  0  0  0  0  0  0  0  0  0  0
   -0.4216   -4.0429   30.4397 C   0  0  0  0  0  0  0  0  0  0  0  0
   -0.9195   -4.2653   31.7312 C   0  0  0  0  0  0  0  0  0  0  0  0
   -0.8858   -5.5708   32.2230 C   0  0  0  0  0  0  0  0  0  0  0  0
   -1.2909   -5.8143   33.4749 F   0  0  0  0  0  0  0  0  0  0  0  0
   -0.4421   -6.6379   31.4546 C   0  0  0  0  0  0  0  0  0  0  0  0
    0.0180   -6.4355   30.1509 C   0  0  0  0  0  0  0  0  0  0  0  0
    0.0167   -5.1198   29.6550 C   0  0  0  0  0  0  0  0  0  0  0  0
    2.5140   -5.5765   25.9345 H   0  0  0  0  0  0  0  0  0  0  0  0
    6.6008   -5.5807   30.6337 H   0  0  0  0  0  0  0  0  0  0  0  0
    9.0686   -6.1978   31.3664 H   0  0  0  0  0  0  0  0  0  0  0  0
   10.0369   -8.1585   29.8971 H   0  0  0  0  0  0  0  0  0  0  0  0
    5.8407   -8.3627   26.8766 H   0  0  0  0  0  0  0  0  0  0  0  0
    5.5586   -6.1999   26.0752 H   0  0  0  0  0  0  0  0  0  0  0  0
    4.9977   -5.5302   24.7694 H   0  0  0  0  0  0  0  0  0  0  0  0
    5.8949   -7.2889   23.5322 H   0  0  0  0  0  0  0  0  0  0  0  0
    6.3283   -8.1048   25.0099 H   0  0  0  0  0  0  0  0  0  0  0  0
    3.5841   -8.6126   23.6131 H   0  0  0  0  0  0  0  0  0  0  0  0
    4.2043   -9.4003   25.0091 H   0  0  0  0  0  0  0  0  0  0  0  0
    2.3651   -4.0020   26.9033 H   0  0  0  0  0  0  0  0  0  0  0  0
   -1.3499   -5.4351   25.0343 H   0  0  0  0  0  0  0  0  0  0  0  0
   -1.3980   -5.2615   27.6935 H   0  0  0  0  0  0  0  0  0  0  0  0
   -1.0944   -3.5100   27.3879 H   0  0  0  0  0  0  0  0  0  0  0  0
    2.1957   -0.4796   30.7526 H   0  0  0  0  0  0  0  0  0  0  0  0
    1.9697   -0.2487   33.1991 H   0  0  0  0  0  0  0  0  0  0  0  0
    1.9360   -2.2262   34.6775 H   0  0  0  0  0  0  0  0  0  0  0  0
    2.8735   -5.4451   30.5009 H   0  0  0  0  0  0  0  0  0  0  0  0
   -1.2250   -3.4433   32.3687 H   0  0  0  0  0  0  0  0  0  0  0  0
   -0.4142   -7.6275   31.9018 H   0  0  0  0  0  0  0  0  0  0  0  0
    0.4360   -7.2744   29.6186 H   0  0  0  0  0  0  0  0  0  0  0  0
  1  2  2  0
  2  3  1  0
  3  4  1  0
  4  5  1  0
  5  6  2  0
  6  7  1  0
  7  8  2  0
  8  9  1  0
  9 10  2  0
 10 11  1  0
 11 12  2  0
 12 13  1  0
  8 14  1  0
  4 15  1  0
 15 16  1  0
 16 17  1  0
  2 18  1  0
 18 19  1  0
 18 20  1  0
 18 21  1  0
 21 22  1  0
 22 23  1  0
 23 24  1  0
 24 25  1  0
 25 26  1  0
 26 27  2  0
 27 28  1  0
 28 29  2  0
 29 30  1  0
 30 31  2  0
 31 32  1  0
 32 33  2  0
 33 34  1  0
 24 35  2  0
 35 36  1  0
 36 37  2  0
 37 38  1  0
 38 39  1  0
 38 40  2  0
 40 41  1  0
 41 42  2  0
 17  4  1  0
 42 23  1  0
 14  5  1  0
 34 26  1  0
 42 36  1  0
 13  9  1  0
 34 30  1  0
  3 43  1  0
 10 44  1  0
 11 45  1  0
 12 46  1  0
 14 47  1  0
 15 48  1  0
 15 49  1  0
 16 50  1  0
 16 51  1  0
 17 52  1  0
 17 53  1  0
 19 54  1  0
 21 55  1  0
 22 56  1  0
 22 57  1  0
 27 58  1  0
 28 59  1  0
 29 60  1  0
 33 61  1  0
 37 62  1  0
 40 63  1  0
 41 64  1  0
M  END
>  <Energy>  (426) 
528.66034364373945

>  <compound_id>  (426) 
2604

>  <target_id>  (426) 
1

>  <reference_id>  (426) 
156

>  <inspiration_ids>  (426) 
[175, 156]

>  <energy_score>  (426) 
375.6910116723102

>  <distance_score>  (426) 
5.5077379169864

>  <path>  (426) 
/opt/xchem-fragalysis-2/maxwin/BulkDock/SCRATCH/505736/C2604-P156/C2604-P156.minimised.mol

>  <scratch_subdir>  (426) 
/opt/xchem-fragalysis-2/maxwin/BulkDock/SCRATCH/505736/C2604-P156

>  <fragmenstein_runtime>  (426) 
19.527226209640503

>  <fragmenstein_outcome>  (426) 
too moved

>  <fragmenstein_mode>  (426) 
expansion

>  <fragmenstein_error>  (426) 


$$$$
C2606-P175
     RDKit          3D

 64 68  0  0  0  0  0  0  0  0999 V2000
    6.2651   -8.3490   26.3909 O   0  0  0  0  0  0  0  0  0  0  0  0
    5.7283   -7.3207   26.2488 C   0  0  0  0  0  0  0  0  0  0  0  0
    6.1256   -5.9007   26.7427 N   0  0  0  0  0  0  0  0  0  0  0  0
    7.1988   -5.4792   27.5804 C   0  0  0  0  0  0  0  0  0  0  0  0
    7.3707   -6.4531   28.7235 C   0  0  0  0  0  0  0  0  0  0  0  0
    7.0938   -6.1992   29.9773 N   0  0  0  0  0  0  0  0  0  0  0  0
    7.5279   -7.2790   30.6959 N   0  0  0  0  0  0  0  0  0  0  0  0
    7.9426   -8.1987   29.8485 C   0  0  0  0  0  0  0  0  0  0  0  0
    8.4975   -9.4585   30.1889 C   0  0  0  0  0  0  0  0  0  0  0  0
    8.7790   -9.9009   31.4625 C   0  0  0  0  0  0  0  0  0  0  0  0
    9.3948  -11.1819   31.4612 C   0  0  0  0  0  0  0  0  0  0  0  0
    9.5462  -11.6793   30.1870 C   0  0  0  0  0  0  0  0  0  0  0  0
    8.9350  -10.6087   29.0051 S   0  0  0  0  0  0  0  0  0  0  0  0
    7.8072   -7.7305   28.5838 N   0  0  0  0  0  0  0  0  0  0  0  0
    7.1456   -4.0044   27.9901 C   0  0  0  0  0  0  0  0  0  0  0  0
    7.8337   -3.7058   26.6565 C   0  0  0  0  0  0  0  0  0  0  0  0
    8.4348   -5.1398   26.7569 C   0  0  0  0  0  0  0  0  0  0  0  0
    4.4007   -7.1006   25.4629 C   0  0  0  0  0  0  0  0  0  0  0  0
    3.4170   -8.5941   25.3353 S   0  0  0  0  0  0  0  0  0  0  0  0
    5.0956   -6.7743   23.7716 Cl  0  0  0  0  0  0  0  0  0  0  0  0
    3.5216   -6.0370   26.1446 N   0  0  0  0  0  0  0  0  0  0  0  0
    3.1719   -6.3212   27.6132 C   0  0  0  0  0  0  0  0  0  0  0  0
    2.5814   -5.2339   28.6414 C   0  0  0  0  0  0  0  0  0  0  0  0
    1.8650   -4.0531   27.9623 C   0  0  0  0  0  0  0  0  0  0  0  0
    2.4049   -2.7486   28.4674 N   0  0  0  0  0  0  0  0  0  0  0  0
    3.5528   -2.0119   27.4311 S   0  0  0  0  0  0  0  0  0  0  0  0
    4.2203   -3.0730   26.7015 O   0  0  0  0  0  0  0  0  0  0  0  0
    2.8590   -0.9199   26.7985 O   0  0  0  0  0  0  0  0  0  0  0  0
    4.7562   -1.2712   28.4632 C   0  0  0  0  0  0  0  0  0  0  0  0
    5.0238   -1.2724   29.8177 C   0  0  0  0  0  0  0  0  0  0  0  0
    6.1821   -0.4884   30.0856 C   0  0  0  0  0  0  0  0  0  0  0  0
    6.7751    0.0869   29.0430 N   0  0  0  0  0  0  0  0  0  0  0  0
    5.9194   -0.3064   27.6729 S   0  0  0  0  0  0  0  0  0  0  0  0
    1.6894   -5.6785   29.8543 C   0  0  0  0  0  0  0  0  0  0  0  0
    1.0795   -6.8170   29.9725 N   0  0  0  0  0  0  0  0  0  0  0  0
    0.3152   -7.0043   31.1085 C   0  0  0  0  0  0  0  0  0  0  0  0
    0.1582   -6.1264   32.1028 C   0  0  0  0  0  0  0  0  0  0  0  0
    0.8389   -4.8431   31.9623 C   0  0  0  0  0  0  0  0  0  0  0  0
    0.7597   -3.9637   32.8082 O   0  0  0  0  0  0  0  0  0  0  0  0
    1.5640   -4.7057   30.8193 N   0  0  0  0  0  0  0  0  0  0  0  0
    5.3928   -5.2466   26.5132 H   0  0  0  0  0  0  0  0  0  0  0  0
    8.5697   -9.3215   32.3547 H   0  0  0  0  0  0  0  0  0  0  0  0
    9.7079  -11.7162   32.3501 H   0  0  0  0  0  0  0  0  0  0  0  0
    9.9721  -12.6313   29.9004 H   0  0  0  0  0  0  0  0  0  0  0  0
    8.0002   -8.2225   27.7203 H   0  0  0  0  0  0  0  0  0  0  0  0
    6.1522   -3.5946   28.1450 H   0  0  0  0  0  0  0  0  0  0  0  0
    7.7603   -3.7376   28.8599 H   0  0  0  0  0  0  0  0  0  0  0  0
    7.1128   -3.5415   25.8476 H   0  0  0  0  0  0  0  0  0  0  0  0
    8.5519   -2.8821   26.6741 H   0  0  0  0  0  0  0  0  0  0  0  0
    9.3835   -5.1757   27.3077 H   0  0  0  0  0  0  0  0  0  0  0  0
    8.5571   -5.7091   25.8325 H   0  0  0  0  0  0  0  0  0  0  0  0
    4.2603   -9.2126   24.4858 H   0  0  0  0  0  0  0  0  0  0  0  0
    3.8268   -5.0842   25.9527 H   0  0  0  0  0  0  0  0  0  0  0  0
    2.5212   -7.1939   27.6342 H   0  0  0  0  0  0  0  0  0  0  0  0
    4.0843   -6.6702   28.1105 H   0  0  0  0  0  0  0  0  0  0  0  0
    3.4896   -4.8253   29.1142 H   0  0  0  0  0  0  0  0  0  0  0  0
    1.9605   -4.0951   26.8812 H   0  0  0  0  0  0  0  0  0  0  0  0
    0.7912   -4.0413   28.1814 H   0  0  0  0  0  0  0  0  0  0  0  0
    1.6418   -2.0574   28.5276 H   0  0  0  0  0  0  0  0  0  0  0  0
    4.4422   -1.8018   30.5593 H   0  0  0  0  0  0  0  0  0  0  0  0
    6.6248   -0.3201   31.0601 H   0  0  0  0  0  0  0  0  0  0  0  0
   -0.1864   -7.9684   31.1719 H   0  0  0  0  0  0  0  0  0  0  0  0
   -0.4454   -6.3067   32.9812 H   0  0  0  0  0  0  0  0  0  0  0  0
    2.0225   -3.8104   30.7065 H   0  0  0  0  0  0  0  0  0  0  0  0
  1  2  2  0
  2  3  1  0
  3  4  1  0
  4  5  1  0
  5  6  2  0
  6  7  1  0
  7  8  2  0
  8  9  1  0
  9 10  2  0
 10 11  1  0
 11 12  2  0
 12 13  1  0
  8 14  1  0
  4 15  1  0
 15 16  1  0
 16 17  1  0
  2 18  1  0
 18 19  1  0
 18 20  1  0
 18 21  1  0
 21 22  1  0
 22 23  1  0
 23 24  1  0
 24 25  1  0
 25 26  1  0
 26 27  2  0
 26 28  2  0
 26 29  1  0
 29 30  2  0
 30 31  1  0
 31 32  2  0
 32 33  1  0
 23 34  1  0
 34 35  2  0
 35 36  1  0
 36 37  2  0
 37 38  1  0
 38 39  2  0
 38 40  1  0
 17  4  1  0
 33 29  1  0
 40 34  1  0
 14  5  1  0
 13  9  1  0
  3 41  1  0
 10 42  1  0
 11 43  1  0
 12 44  1  0
 14 45  1  0
 15 46  1  0
 15 47  1  0
 16 48  1  0
 16 49  1  0
 17 50  1  0
 17 51  1  0
 19 52  1  0
 21 53  1  0
 22 54  1  0
 22 55  1  0
 23 56  1  0
 24 57  1  0
 24 58  1  0
 25 59  1  0
 30 60  1  0
 31 61  1  0
 36 62  1  0
 37 63  1  0
 40 64  1  0
M  END
>  <Energy>  (427) 
-27.434723008797256

>  <compound_id>  (427) 
2606

>  <target_id>  (427) 
1

>  <reference_id>  (427) 
175

>  <inspiration_ids>  (427) 
[175, 158]

>  <energy_score>  (427) 
-55.03614938126992

>  <distance_score>  (427) 
5.548461004400987

>  <path>  (427) 
/opt/xchem-fragalysis-2/maxwin/BulkDock/SCRATCH/505736/C2606-P175/C2606-P175.minimised.mol

>  <scratch_subdir>  (427) 
/opt/xchem-fragalysis-2/maxwin/BulkDock/SCRATCH/505736/C2606-P175

>  <fragmenstein_runtime>  (427) 
11.876340389251709

>  <fragmenstein_outcome>  (427) 
too moved

>  <fragmenstein_mode>  (427) 
expansion

>  <fragmenstein_error>  (427) 


$$$$
C2606-P158
     RDKit          3D

 64 68  0  0  0  0  0  0  0  0999 V2000
    3.2865   -5.4272   25.8001 O   0  0  0  0  0  0  0  0  0  0  0  0
    4.2561   -4.8229   26.0482 C   0  0  0  0  0  0  0  0  0  0  0  0
    5.6821   -5.3126   26.3860 N   0  0  0  0  0  0  0  0  0  0  0  0
    6.2367   -6.6412   26.3967 C   0  0  0  0  0  0  0  0  0  0  0  0
    6.3416   -7.1757   27.8247 C   0  0  0  0  0  0  0  0  0  0  0  0
    6.1162   -6.4672   28.9096 N   0  0  0  0  0  0  0  0  0  0  0  0
    6.9020   -7.0088   29.9030 N   0  0  0  0  0  0  0  0  0  0  0  0
    7.5253   -8.0498   29.3940 C   0  0  0  0  0  0  0  0  0  0  0  0
    8.6456   -8.7262   29.9417 C   0  0  0  0  0  0  0  0  0  0  0  0
    8.9619   -8.8797   31.2715 C   0  0  0  0  0  0  0  0  0  0  0  0
   10.1902   -9.5787   31.4501 C   0  0  0  0  0  0  0  0  0  0  0  0
   10.7718   -9.9236   30.2505 C   0  0  0  0  0  0  0  0  0  0  0  0
    9.8555   -9.3792   28.9161 S   0  0  0  0  0  0  0  0  0  0  0  0
    7.0235   -8.3077   28.1535 N   0  0  0  0  0  0  0  0  0  0  0  0
    7.5989   -6.7074   25.6660 C   0  0  0  0  0  0  0  0  0  0  0  0
    6.7570   -6.8457   24.3983 C   0  0  0  0  0  0  0  0  0  0  0  0
    5.7044   -7.5588   25.2872 C   0  0  0  0  0  0  0  0  0  0  0  0
    4.2413   -3.2604   26.1954 C   0  0  0  0  0  0  0  0  0  0  0  0
    5.5694   -2.6241   27.2180 S   0  0  0  0  0  0  0  0  0  0  0  0
    4.6041   -2.4534   24.2214 Cl  0  0  0  0  0  0  0  0  0  0  0  0
    2.9677   -2.8874   26.9496 N   0  0  0  0  0  0  0  0  0  0  0  0
    2.6368   -3.7527   28.1855 C   0  0  0  0  0  0  0  0  0  0  0  0
    1.3300   -3.4631   29.0512 C   0  0  0  0  0  0  0  0  0  0  0  0
    1.4519   -2.0323   29.6191 C   0  0  0  0  0  0  0  0  0  0  0  0
    0.3546   -1.7270   30.5813 N   0  0  0  0  0  0  0  0  0  0  0  0
    0.4593   -0.1703   31.2572 S   0  0  0  0  0  0  0  0  0  0  0  0
    1.4970   -0.2357   32.2605 O   0  0  0  0  0  0  0  0  0  0  0  0
    0.4675    0.7972   30.1857 O   0  0  0  0  0  0  0  0  0  0  0  0
   -1.0409    0.0854   32.1223 C   0  0  0  0  0  0  0  0  0  0  0  0
   -2.2503   -0.5757   32.1985 C   0  0  0  0  0  0  0  0  0  0  0  0
   -3.1386    0.1299   33.0586 C   0  0  0  0  0  0  0  0  0  0  0  0
   -2.6788    1.2528   33.6043 N   0  0  0  0  0  0  0  0  0  0  0  0
   -1.1003    1.4581   33.1270 S   0  0  0  0  0  0  0  0  0  0  0  0
    1.0138   -4.4812   30.2021 C   0  0  0  0  0  0  0  0  0  0  0  0
    1.3808   -4.2457   31.4272 N   0  0  0  0  0  0  0  0  0  0  0  0
    0.9822   -5.1141   32.4088 C   0  0  0  0  0  0  0  0  0  0  0  0
    0.2494   -6.2065   32.2007 C   0  0  0  0  0  0  0  0  0  0  0  0
   -0.1374   -6.4951   30.8150 C   0  0  0  0  0  0  0  0  0  0  0  0
   -0.8106   -7.4790   30.5296 O   0  0  0  0  0  0  0  0  0  0  0  0
    0.2857   -5.5928   29.8814 N   0  0  0  0  0  0  0  0  0  0  0  0
    6.3070   -4.5106   26.4673 H   0  0  0  0  0  0  0  0  0  0  0  0
    8.3378   -8.5190   32.0805 H   0  0  0  0  0  0  0  0  0  0  0  0
   10.6175   -9.8265   32.4137 H   0  0  0  0  0  0  0  0  0  0  0  0
   11.6977  -10.4601   30.0965 H   0  0  0  0  0  0  0  0  0  0  0  0
    7.4061   -8.9874   27.5140 H   0  0  0  0  0  0  0  0  0  0  0  0
    8.2327   -5.8311   25.7940 H   0  0  0  0  0  0  0  0  0  0  0  0
    8.2213   -7.5911   25.8565 H   0  0  0  0  0  0  0  0  0  0  0  0
    6.4730   -5.8728   24.0016 H   0  0  0  0  0  0  0  0  0  0  0  0
    7.1828   -7.4225   23.6035 H   0  0  0  0  0  0  0  0  0  0  0  0
    4.6633   -7.4485   24.9827 H   0  0  0  0  0  0  0  0  0  0  0  0
    5.8969   -8.6267   25.4477 H   0  0  0  0  0  0  0  0  0  0  0  0
    5.4916   -3.5520   28.1851 H   0  0  0  0  0  0  0  0  0  0  0  0
    3.0733   -1.9093   27.2170 H   0  0  0  0  0  0  0  0  0  0  0  0
    3.4852   -3.7187   28.8773 H   0  0  0  0  0  0  0  0  0  0  0  0
    2.5345   -4.7956   27.8791 H   0  0  0  0  0  0  0  0  0  0  0  0
    0.4697   -3.4930   28.3688 H   0  0  0  0  0  0  0  0  0  0  0  0
    2.4119   -1.9218   30.1382 H   0  0  0  0  0  0  0  0  0  0  0  0
    1.4129   -1.3117   28.7950 H   0  0  0  0  0  0  0  0  0  0  0  0
    0.4273   -2.3853   31.3709 H   0  0  0  0  0  0  0  0  0  0  0  0
   -2.4801   -1.4884   31.6663 H   0  0  0  0  0  0  0  0  0  0  0  0
   -4.1562   -0.1555   33.2986 H   0  0  0  0  0  0  0  0  0  0  0  0
    1.2892   -4.8541   33.4202 H   0  0  0  0  0  0  0  0  0  0  0  0
   -0.0811   -6.8720   32.9855 H   0  0  0  0  0  0  0  0  0  0  0  0
   -0.0994   -5.6865   28.9480 H   0  0  0  0  0  0  0  0  0  0  0  0
  1  2  2  0
  2  3  1  0
  3  4  1  0
  4  5  1  0
  5  6  2  0
  6  7  1  0
  7  8  2  0
  8  9  1  0
  9 10  2  0
 10 11  1  0
 11 12  2  0
 12 13  1  0
  8 14  1  0
  4 15  1  0
 15 16  1  0
 16 17  1  0
  2 18  1  0
 18 19  1  0
 18 20  1  0
 18 21  1  0
 21 22  1  0
 22 23  1  0
 23 24  1  0
 24 25  1  0
 25 26  1  0
 26 27  2  0
 26 28  2  0
 26 29  1  0
 29 30  2  0
 30 31  1  0
 31 32  2  0
 32 33  1  0
 23 34  1  0
 34 35  2  0
 35 36  1  0
 36 37  2  0
 37 38  1  0
 38 39  2  0
 38 40  1  0
 17  4  1  0
 33 29  1  0
 40 34  1  0
 14  5  1  0
 13  9  1  0
  3 41  1  0
 10 42  1  0
 11 43  1  0
 12 44  1  0
 14 45  1  0
 15 46  1  0
 15 47  1  0
 16 48  1  0
 16 49  1  0
 17 50  1  0
 17 51  1  0
 19 52  1  0
 21 53  1  0
 22 54  1  0
 22 55  1  0
 23 56  1  0
 24 57  1  0
 24 58  1  0
 25 59  1  0
 30 60  1  0
 31 61  1  0
 36 62  1  0
 37 63  1  0
 40 64  1  0
M  END
>  <Energy>  (428) 
2.8214658946916513

>  <compound_id>  (428) 
2606

>  <target_id>  (428) 
1

>  <reference_id>  (428) 
158

>  <inspiration_ids>  (428) 
[175, 158]

>  <energy_score>  (428) 
-24.779960477779014

>  <distance_score>  (428) 
5.261031141161221

>  <path>  (428) 
/opt/xchem-fragalysis-2/maxwin/BulkDock/SCRATCH/505736/C2606-P158/C2606-P158.minimised.mol

>  <scratch_subdir>  (428) 
/opt/xchem-fragalysis-2/maxwin/BulkDock/SCRATCH/505736/C2606-P158

>  <fragmenstein_runtime>  (428) 
15.00736403465271

>  <fragmenstein_outcome>  (428) 
too moved

>  <fragmenstein_mode>  (428) 
expansion

>  <fragmenstein_error>  (428) 


$$$$
C2607-P175
     RDKit          3D

 61 65  0  0  0  0  0  0  0  0999 V2000
    6.2883   -2.8475   27.0448 O   0  0  0  0  0  0  0  0  0  0  0  0
    5.2489   -3.3159   26.7741 C   0  0  0  0  0  0  0  0  0  0  0  0
    4.8634   -4.7964   26.4106 N   0  0  0  0  0  0  0  0  0  0  0  0
    5.6990   -5.9649   26.2173 C   0  0  0  0  0  0  0  0  0  0  0  0
    6.1691   -6.6091   27.5346 C   0  0  0  0  0  0  0  0  0  0  0  0
    5.6288   -6.4042   28.7107 N   0  0  0  0  0  0  0  0  0  0  0  0
    6.3379   -7.1665   29.6047 N   0  0  0  0  0  0  0  0  0  0  0  0
    7.2193   -7.8903   28.9511 C   0  0  0  0  0  0  0  0  0  0  0  0
    8.0701   -8.8952   29.5033 C   0  0  0  0  0  0  0  0  0  0  0  0
    8.4282   -9.0407   30.8285 C   0  0  0  0  0  0  0  0  0  0  0  0
    9.2606  -10.1763   31.0492 C   0  0  0  0  0  0  0  0  0  0  0  0
    9.5113  -10.8638   29.8836 C   0  0  0  0  0  0  0  0  0  0  0  0
    8.7543  -10.1334   28.5357 S   0  0  0  0  0  0  0  0  0  0  0  0
    7.1625   -7.5417   27.6382 N   0  0  0  0  0  0  0  0  0  0  0  0
    6.7992   -5.6844   25.1944 C   0  0  0  0  0  0  0  0  0  0  0  0
    6.4410   -6.9696   24.4677 C   0  0  0  0  0  0  0  0  0  0  0  0
    5.1157   -7.0168   25.2417 C   0  0  0  0  0  0  0  0  0  0  0  0
    3.9177   -2.5280   26.5923 C   0  0  0  0  0  0  0  0  0  0  0  0
    3.7258   -0.9561   27.3515 S   0  0  0  0  0  0  0  0  0  0  0  0
    4.1683   -2.0650   24.4722 Cl  0  0  0  0  0  0  0  0  0  0  0  0
    2.7412   -3.4388   26.9944 N   0  0  0  0  0  0  0  0  0  0  0  0
    2.0519   -3.2785   28.4465 C   0  0  0  0  0  0  0  0  0  0  0  0
    0.9303   -4.3140   28.6783 C   0  0  0  0  0  0  0  0  0  0  0  0
    0.0968   -4.1994   29.9225 N   0  0  0  0  0  0  0  0  0  0  0  0
    0.5401   -5.0858   31.2953 S   0  0  0  0  0  0  0  0  0  0  0  0
    1.8244   -5.7168   31.1015 O   0  0  0  0  0  0  0  0  0  0  0  0
    0.2310   -4.2568   32.4391 O   0  0  0  0  0  0  0  0  0  0  0  0
   -0.4748   -6.4564   31.5650 C   0  0  0  0  0  0  0  0  0  0  0  0
   -1.1840   -6.8806   32.6618 C   0  0  0  0  0  0  0  0  0  0  0  0
   -1.6951   -8.1672   32.4081 C   0  0  0  0  0  0  0  0  0  0  0  0
   -1.4361   -8.7115   31.2234 N   0  0  0  0  0  0  0  0  0  0  0  0
   -0.4774   -7.6646   30.3841 S   0  0  0  0  0  0  0  0  0  0  0  0
    2.7940   -3.3207   29.7748 C   0  0  0  0  0  0  0  0  0  0  0  0
    2.2499   -2.6089   30.7272 N   0  0  0  0  0  0  0  0  0  0  0  0
    2.7043   -2.7647   32.0068 C   0  0  0  0  0  0  0  0  0  0  0  0
    3.7102   -3.5654   32.3416 C   0  0  0  0  0  0  0  0  0  0  0  0
    4.4139   -4.2228   31.2324 C   0  0  0  0  0  0  0  0  0  0  0  0
    5.5285   -4.6932   31.4293 O   0  0  0  0  0  0  0  0  0  0  0  0
    3.7983   -4.2001   30.0084 N   0  0  0  0  0  0  0  0  0  0  0  0
    3.8813   -4.8382   26.1489 H   0  0  0  0  0  0  0  0  0  0  0  0
    8.1010   -8.3612   31.6081 H   0  0  0  0  0  0  0  0  0  0  0  0
    9.6481  -10.4755   32.0155 H   0  0  0  0  0  0  0  0  0  0  0  0
   10.1018  -11.7619   29.7617 H   0  0  0  0  0  0  0  0  0  0  0  0
    7.7381   -7.9128   26.8978 H   0  0  0  0  0  0  0  0  0  0  0  0
    6.6122   -4.7962   24.5818 H   0  0  0  0  0  0  0  0  0  0  0  0
    7.8157   -5.6532   25.5938 H   0  0  0  0  0  0  0  0  0  0  0  0
    6.3549   -6.8471   23.3893 H   0  0  0  0  0  0  0  0  0  0  0  0
    7.1222   -7.7965   24.6915 H   0  0  0  0  0  0  0  0  0  0  0  0
    4.2454   -6.6835   24.6780 H   0  0  0  0  0  0  0  0  0  0  0  0
    4.8721   -7.9982   25.6631 H   0  0  0  0  0  0  0  0  0  0  0  0
    4.9084   -0.4734   26.9375 H   0  0  0  0  0  0  0  0  0  0  0  0
    2.0076   -2.9905   26.4576 H   0  0  0  0  0  0  0  0  0  0  0  0
    1.5507   -2.3009   28.4011 H   0  0  0  0  0  0  0  0  0  0  0  0
    0.2190   -4.1649   27.8649 H   0  0  0  0  0  0  0  0  0  0  0  0
    1.3887   -5.3030   28.6520 H   0  0  0  0  0  0  0  0  0  0  0  0
   -0.0144   -3.2186   30.2127 H   0  0  0  0  0  0  0  0  0  0  0  0
   -1.2874   -6.3153   33.5793 H   0  0  0  0  0  0  0  0  0  0  0  0
   -2.2825   -8.7337   33.1081 H   0  0  0  0  0  0  0  0  0  0  0  0
    2.1753   -2.2047   32.7743 H   0  0  0  0  0  0  0  0  0  0  0  0
    4.0848   -3.6857   33.3463 H   0  0  0  0  0  0  0  0  0  0  0  0
    4.3073   -4.6801   29.2739 H   0  0  0  0  0  0  0  0  0  0  0  0
  1  2  2  0
  2  3  1  0
  3  4  1  0
  4  5  1  0
  5  6  2  0
  6  7  1  0
  7  8  2  0
  8  9  1  0
  9 10  2  0
 10 11  1  0
 11 12  2  0
 12 13  1  0
  8 14  1  0
  4 15  1  0
 15 16  1  0
 16 17  1  0
  2 18  1  0
 18 19  1  0
 18 20  1  0
 18 21  1  0
 21 22  1  0
 22 23  1  0
 23 24  1  0
 24 25  1  0
 25 26  2  0
 25 27  2  0
 25 28  1  0
 28 29  2  0
 29 30  1  0
 30 31  2  0
 31 32  1  0
 22 33  1  0
 33 34  2  0
 34 35  1  0
 35 36  2  0
 36 37  1  0
 37 38  2  0
 37 39  1  0
 17  4  1  0
 32 28  1  0
 39 33  1  0
 14  5  1  0
 13  9  1  0
  3 40  1  0
 10 41  1  0
 11 42  1  0
 12 43  1  0
 14 44  1  0
 15 45  1  0
 15 46  1  0
 16 47  1  0
 16 48  1  0
 17 49  1  0
 17 50  1  0
 19 51  1  0
 21 52  1  0
 22 53  1  0
 23 54  1  0
 23 55  1  0
 24 56  1  0
 29 57  1  0
 30 58  1  0
 35 59  1  0
 36 60  1  0
 39 61  1  0
M  END
>  <Energy>  (429) 
47.614754023594685

>  <compound_id>  (429) 
2607

>  <target_id>  (429) 
1

>  <reference_id>  (429) 
175

>  <inspiration_ids>  (429) 
[175, 159]

>  <energy_score>  (429) 
-9.406435153548216

>  <distance_score>  (429) 
5.760905920889806

>  <path>  (429) 
/opt/xchem-fragalysis-2/maxwin/BulkDock/SCRATCH/505736/C2607-P175/C2607-P175.minimised.mol

>  <scratch_subdir>  (429) 
/opt/xchem-fragalysis-2/maxwin/BulkDock/SCRATCH/505736/C2607-P175

>  <fragmenstein_runtime>  (429) 
10.249227523803711

>  <fragmenstein_outcome>  (429) 
too moved

>  <fragmenstein_mode>  (429) 
expansion

>  <fragmenstein_error>  (429) 


$$$$
C2607-P159
     RDKit          3D

 61 65  0  0  0  0  0  0  0  0999 V2000
    2.7803   -7.0347   28.1598 O   0  0  0  0  0  0  0  0  0  0  0  0
    3.3164   -6.0300   27.9019 C   0  0  0  0  0  0  0  0  0  0  0  0
    4.7413   -5.7635   27.3794 N   0  0  0  0  0  0  0  0  0  0  0  0
    5.7547   -6.6608   26.9817 C   0  0  0  0  0  0  0  0  0  0  0  0
    6.4658   -7.2414   28.1928 C   0  0  0  0  0  0  0  0  0  0  0  0
    6.4699   -6.6938   29.3865 N   0  0  0  0  0  0  0  0  0  0  0  0
    7.5447   -7.2182   30.0591 N   0  0  0  0  0  0  0  0  0  0  0  0
    8.1457   -8.0630   29.2481 C   0  0  0  0  0  0  0  0  0  0  0  0
    9.3877   -8.7160   29.4645 C   0  0  0  0  0  0  0  0  0  0  0  0
   10.1806   -8.6121   30.5883 C   0  0  0  0  0  0  0  0  0  0  0  0
   11.2279   -9.5753   30.5870 C   0  0  0  0  0  0  0  0  0  0  0  0
   11.2605  -10.3030   29.4181 C   0  0  0  0  0  0  0  0  0  0  0  0
   10.0639   -9.7898   28.3124 S   0  0  0  0  0  0  0  0  0  0  0  0
    7.3861   -8.2335   28.1345 N   0  0  0  0  0  0  0  0  0  0  0  0
    6.7153   -5.9456   26.0269 C   0  0  0  0  0  0  0  0  0  0  0  0
    6.6341   -7.1465   25.1101 C   0  0  0  0  0  0  0  0  0  0  0  0
    5.3581   -7.5937   25.8362 C   0  0  0  0  0  0  0  0  0  0  0  0
    2.6828   -4.6162   27.9145 C   0  0  0  0  0  0  0  0  0  0  0  0
    3.6139   -3.3409   28.7165 S   0  0  0  0  0  0  0  0  0  0  0  0
    3.0049   -4.1929   25.8637 Cl  0  0  0  0  0  0  0  0  0  0  0  0
    1.2854   -4.5977   28.4348 N   0  0  0  0  0  0  0  0  0  0  0  0
    1.1662   -5.1138   29.9000 C   0  0  0  0  0  0  0  0  0  0  0  0
    0.1261   -6.2632   30.3462 C   0  0  0  0  0  0  0  0  0  0  0  0
   -0.5381   -6.0619   31.7008 N   0  0  0  0  0  0  0  0  0  0  0  0
   -0.8925   -7.3262   32.7414 S   0  0  0  0  0  0  0  0  0  0  0  0
   -0.7401   -8.5475   32.0019 O   0  0  0  0  0  0  0  0  0  0  0  0
   -2.1294   -7.0455   33.4136 O   0  0  0  0  0  0  0  0  0  0  0  0
    0.1819   -7.3130   34.1348 C   0  0  0  0  0  0  0  0  0  0  0  0
    0.0566   -7.8079   35.4223 C   0  0  0  0  0  0  0  0  0  0  0  0
    1.1939   -7.4667   36.2034 C   0  0  0  0  0  0  0  0  0  0  0  0
    2.1342   -6.7519   35.5936 N   0  0  0  0  0  0  0  0  0  0  0  0
    1.6004   -6.3898   34.0712 S   0  0  0  0  0  0  0  0  0  0  0  0
    0.7198   -3.9953   30.8064 C   0  0  0  0  0  0  0  0  0  0  0  0
    1.2437   -3.9225   31.9941 N   0  0  0  0  0  0  0  0  0  0  0  0
    0.6272   -3.1050   32.9012 C   0  0  0  0  0  0  0  0  0  0  0  0
   -0.5626   -2.5408   32.6979 C   0  0  0  0  0  0  0  0  0  0  0  0
   -1.1896   -2.7322   31.3812 C   0  0  0  0  0  0  0  0  0  0  0  0
   -2.3475   -2.3966   31.1702 O   0  0  0  0  0  0  0  0  0  0  0  0
   -0.4208   -3.3473   30.4440 N   0  0  0  0  0  0  0  0  0  0  0  0
    4.8514   -4.7675   27.1834 H   0  0  0  0  0  0  0  0  0  0  0  0
    9.9587   -7.9445   31.4147 H   0  0  0  0  0  0  0  0  0  0  0  0
   11.9304   -9.7198   31.3995 H   0  0  0  0  0  0  0  0  0  0  0  0
   11.9578  -11.0845   29.1477 H   0  0  0  0  0  0  0  0  0  0  0  0
    7.6326   -8.7956   27.3348 H   0  0  0  0  0  0  0  0  0  0  0  0
    7.7037   -5.7549   26.4524 H   0  0  0  0  0  0  0  0  0  0  0  0
    6.3220   -5.0285   25.5741 H   0  0  0  0  0  0  0  0  0  0  0  0
    6.5195   -6.8940   24.0592 H   0  0  0  0  0  0  0  0  0  0  0  0
    7.4678   -7.8359   25.2566 H   0  0  0  0  0  0  0  0  0  0  0  0
    5.3061   -8.6590   26.0704 H   0  0  0  0  0  0  0  0  0  0  0  0
    4.4344   -7.3203   25.3166 H   0  0  0  0  0  0  0  0  0  0  0  0
    2.8169   -2.3339   28.3313 H   0  0  0  0  0  0  0  0  0  0  0  0
    0.7473   -5.2406   27.8600 H   0  0  0  0  0  0  0  0  0  0  0  0
    2.1513   -5.4388   30.2468 H   0  0  0  0  0  0  0  0  0  0  0  0
   -0.7056   -6.2780   29.6471 H   0  0  0  0  0  0  0  0  0  0  0  0
    0.5978   -7.2405   30.2855 H   0  0  0  0  0  0  0  0  0  0  0  0
   -0.1112   -5.3245   32.2719 H   0  0  0  0  0  0  0  0  0  0  0  0
   -0.7943   -8.3833   35.7654 H   0  0  0  0  0  0  0  0  0  0  0  0
    1.3647   -7.7406   37.2379 H   0  0  0  0  0  0  0  0  0  0  0  0
    1.1393   -2.9645   33.8513 H   0  0  0  0  0  0  0  0  0  0  0  0
   -1.0802   -1.9383   33.4313 H   0  0  0  0  0  0  0  0  0  0  0  0
   -0.8341   -3.4763   29.5270 H   0  0  0  0  0  0  0  0  0  0  0  0
  1  2  2  0
  2  3  1  0
  3  4  1  0
  4  5  1  0
  5  6  2  0
  6  7  1  0
  7  8  2  0
  8  9  1  0
  9 10  2  0
 10 11  1  0
 11 12  2  0
 12 13  1  0
  8 14  1  0
  4 15  1  0
 15 16  1  0
 16 17  1  0
  2 18  1  0
 18 19  1  0
 18 20  1  0
 18 21  1  0
 21 22  1  0
 22 23  1  0
 23 24  1  0
 24 25  1  0
 25 26  2  0
 25 27  2  0
 25 28  1  0
 28 29  2  0
 29 30  1  0
 30 31  2  0
 31 32  1  0
 22 33  1  0
 33 34  2  0
 34 35  1  0
 35 36  2  0
 36 37  1  0
 37 38  2  0
 37 39  1  0
 17  4  1  0
 32 28  1  0
 39 33  1  0
 14  5  1  0
 13  9  1  0
  3 40  1  0
 10 41  1  0
 11 42  1  0
 12 43  1  0
 14 44  1  0
 15 45  1  0
 15 46  1  0
 16 47  1  0
 16 48  1  0
 17 49  1  0
 17 50  1  0
 19 51  1  0
 21 52  1  0
 22 53  1  0
 23 54  1  0
 23 55  1  0
 24 56  1  0
 29 57  1  0
 30 58  1  0
 35 59  1  0
 36 60  1  0
 39 61  1  0
M  END
>  <Energy>  (430) 
43.61966406405778

>  <compound_id>  (430) 
2607

>  <target_id>  (430) 
1

>  <reference_id>  (430) 
159

>  <inspiration_ids>  (430) 
[175, 159]

>  <energy_score>  (430) 
-13.401525113082869

>  <distance_score>  (430) 
5.480312232345377

>  <path>  (430) 
/opt/xchem-fragalysis-2/maxwin/BulkDock/SCRATCH/505736/C2607-P159/C2607-P159.minimised.mol

>  <scratch_subdir>  (430) 
/opt/xchem-fragalysis-2/maxwin/BulkDock/SCRATCH/505736/C2607-P159

>  <fragmenstein_runtime>  (430) 
15.283379077911377

>  <fragmenstein_outcome>  (430) 
too moved

>  <fragmenstein_mode>  (430) 
expansion

>  <fragmenstein_error>  (430) 


$$$$
C2608-P175
     RDKit          3D

 66 70  0  0  0  0  0  0  0  0999 V2000
    3.2670   -9.3918   23.8254 O   0  0  0  0  0  0  0  0  0  0  0  0
    3.0317   -8.2321   24.0158 C   0  0  0  0  0  0  0  0  0  0  0  0
    3.8693   -7.1565   24.6879 N   0  0  0  0  0  0  0  0  0  0  0  0
    5.2878   -7.1923   25.2293 C   0  0  0  0  0  0  0  0  0  0  0  0
    5.5211   -7.7114   26.6899 C   0  0  0  0  0  0  0  0  0  0  0  0
    4.9005   -7.2662   27.7647 N   0  0  0  0  0  0  0  0  0  0  0  0
    5.7393   -7.4797   28.8486 N   0  0  0  0  0  0  0  0  0  0  0  0
    6.7929   -8.1525   28.4285 C   0  0  0  0  0  0  0  0  0  0  0  0
    7.8695   -8.6635   29.2191 C   0  0  0  0  0  0  0  0  0  0  0  0
    8.2722   -8.2381   30.4690 C   0  0  0  0  0  0  0  0  0  0  0  0
    9.3548   -9.0086   30.9883 C   0  0  0  0  0  0  0  0  0  0  0  0
    9.7538   -9.9926   30.1126 C   0  0  0  0  0  0  0  0  0  0  0  0
    8.8362   -9.9736   28.6723 S   0  0  0  0  0  0  0  0  0  0  0  0
    6.6814   -8.3308   27.0803 N   0  0  0  0  0  0  0  0  0  0  0  0
    5.8952   -5.7058   25.3036 C   0  0  0  0  0  0  0  0  0  0  0  0
    7.1658   -6.1824   24.6964 C   0  0  0  0  0  0  0  0  0  0  0  0
    6.4344   -7.3976   24.2527 C   0  0  0  0  0  0  0  0  0  0  0  0
    1.4029   -7.4752   23.6054 C   0  0  0  0  0  0  0  0  0  0  0  0
    0.6717   -8.3110   21.3830 S   0  0  0  0  0  0  0  0  0  0  0  0
    0.0880   -7.4144   21.7875 Cl  0  0  0  0  0  0  0  0  0  0  0  0
    1.1942   -5.6873   24.3223 N   0  0  0  0  0  0  0  0  0  0  0  0
    2.1028   -5.1636   25.9012 C   0  0  0  0  0  0  0  0  0  0  0  0
    1.5314   -4.1860   27.2965 C   0  0  0  0  0  0  0  0  0  0  0  0
    0.1380   -3.8665   27.6865 N   0  0  0  0  0  0  0  0  0  0  0  0
   -0.0952   -2.6427   28.8492 S   0  0  0  0  0  0  0  0  0  0  0  0
   -1.4321   -2.7599   29.3867 O   0  0  0  0  0  0  0  0  0  0  0  0
    0.4447   -1.3958   28.3556 O   0  0  0  0  0  0  0  0  0  0  0  0
    0.9853   -3.2033   30.1620 C   0  0  0  0  0  0  0  0  0  0  0  0
    0.6151   -4.3311   30.9050 C   0  0  0  0  0  0  0  0  0  0  0  0
    1.4651   -4.8019   31.9040 C   0  0  0  0  0  0  0  0  0  0  0  0
    2.6625   -4.1388   32.1572 C   0  0  0  0  0  0  0  0  0  0  0  0
    3.4626   -4.6401   33.1414 O   0  0  0  0  0  0  0  0  0  0  0  0
    3.0270   -3.0050   31.4322 C   0  0  0  0  0  0  0  0  0  0  0  0
    2.1817   -2.5298   30.4272 C   0  0  0  0  0  0  0  0  0  0  0  0
    3.4649   -4.3658   26.0147 C   0  0  0  0  0  0  0  0  0  0  0  0
    4.0824   -4.5592   27.2117 N   0  0  0  0  0  0  0  0  0  0  0  0
    4.9275   -3.6153   27.6826 C   0  0  0  0  0  0  0  0  0  0  0  0
    5.1896   -2.4625   27.0070 C   0  0  0  0  0  0  0  0  0  0  0  0
    4.5482   -2.3637   25.8055 C   0  0  0  0  0  0  0  0  0  0  0  0
    4.7370   -1.2314   25.0703 O   0  0  0  0  0  0  0  0  0  0  0  0
    3.7072   -3.2797   25.2843 N   0  0  0  0  0  0  0  0  0  0  0  0
    3.4095   -6.2852   24.6041 H   0  0  0  0  0  0  0  0  0  0  0  0
    7.8032   -7.4155   30.9957 H   0  0  0  0  0  0  0  0  0  0  0  0
    9.8126   -8.8514   31.9576 H   0  0  0  0  0  0  0  0  0  0  0  0
   10.5413  -10.7218   30.2493 H   0  0  0  0  0  0  0  0  0  0  0  0
    7.3735   -8.7571   26.4829 H   0  0  0  0  0  0  0  0  0  0  0  0
    5.4545   -4.9535   24.6618 H   0  0  0  0  0  0  0  0  0  0  0  0
    6.1320   -5.2905   26.2806 H   0  0  0  0  0  0  0  0  0  0  0  0
    7.4359   -5.5849   23.8392 H   0  0  0  0  0  0  0  0  0  0  0  0
    7.9959   -6.3445   25.3865 H   0  0  0  0  0  0  0  0  0  0  0  0
    7.0685   -8.2721   24.4058 H   0  0  0  0  0  0  0  0  0  0  0  0
    6.1381   -7.2028   23.2211 H   0  0  0  0  0  0  0  0  0  0  0  0
    1.0793   -7.3183   20.5298 H   0  0  0  0  0  0  0  0  0  0  0  0
    0.7072   -5.1061   23.6028 H   0  0  0  0  0  0  0  0  0  0  0  0
    2.3776   -6.1231   26.3574 H   0  0  0  0  0  0  0  0  0  0  0  0
    1.9459   -4.7211   28.1638 H   0  0  0  0  0  0  0  0  0  0  0  0
    2.0009   -3.1943   27.2400 H   0  0  0  0  0  0  0  0  0  0  0  0
   -0.5592   -4.6095   27.7459 H   0  0  0  0  0  0  0  0  0  0  0  0
   -0.3240   -4.8390   30.7069 H   0  0  0  0  0  0  0  0  0  0  0  0
    1.1946   -5.6757   32.4897 H   0  0  0  0  0  0  0  0  0  0  0  0
    4.2171   -4.0391   33.2630 H   0  0  0  0  0  0  0  0  0  0  0  0
    3.9574   -2.4825   31.6332 H   0  0  0  0  0  0  0  0  0  0  0  0
    2.4602   -1.6473   29.8546 H   0  0  0  0  0  0  0  0  0  0  0  0
    5.3894   -3.8393   28.6391 H   0  0  0  0  0  0  0  0  0  0  0  0
    5.8557   -1.6968   27.3736 H   0  0  0  0  0  0  0  0  0  0  0  0
    4.1047   -1.2693   24.3261 H   0  0  0  0  0  0  0  0  0  0  0  0
  1  2  2  0
  2  3  1  0
  3  4  1  0
  4  5  1  0
  5  6  2  0
  6  7  1  0
  7  8  2  0
  8  9  1  0
  9 10  2  0
 10 11  1  0
 11 12  2  0
 12 13  1  0
  8 14  1  0
  4 15  1  0
 15 16  1  0
 16 17  1  0
  2 18  1  0
 18 19  1  0
 18 20  1  0
 18 21  1  0
 21 22  1  0
 22 23  1  0
 23 24  1  0
 24 25  1  0
 25 26  2  0
 25 27  2  0
 25 28  1  0
 28 29  2  0
 29 30  1  0
 30 31  2  0
 31 32  1  0
 31 33  1  0
 33 34  2  0
 22 35  1  0
 35 36  2  0
 36 37  1  0
 37 38  2  0
 38 39  1  0
 39 40  1  0
 39 41  2  0
 17  4  1  0
 34 28  1  0
 41 35  1  0
 14  5  1  0
 13  9  1  0
  3 42  1  0
 10 43  1  0
 11 44  1  0
 12 45  1  0
 14 46  1  0
 15 47  1  0
 15 48  1  0
 16 49  1  0
 16 50  1  0
 17 51  1  0
 17 52  1  0
 19 53  1  0
 21 54  1  0
 22 55  1  0
 23 56  1  0
 23 57  1  0
 24 58  1  0
 29 59  1  0
 30 60  1  0
 32 61  1  0
 33 62  1  0
 34 63  1  0
 37 64  1  0
 38 65  1  0
 40 66  1  0
M  END
>  <Energy>  (431) 
552.68585912760625

>  <compound_id>  (431) 
2608

>  <target_id>  (431) 
1

>  <reference_id>  (431) 
175

>  <inspiration_ids>  (431) 
[175, 162]

>  <energy_score>  (431) 
461.06361413517277

>  <distance_score>  (431) 
5.606982607371974

>  <path>  (431) 
/opt/xchem-fragalysis-2/maxwin/BulkDock/SCRATCH/505736/C2608-P175/C2608-P175.minimised.mol

>  <scratch_subdir>  (431) 
/opt/xchem-fragalysis-2/maxwin/BulkDock/SCRATCH/505736/C2608-P175

>  <fragmenstein_runtime>  (431) 
26.632352590560913

>  <fragmenstein_outcome>  (431) 
too moved

>  <fragmenstein_mode>  (431) 
expansion

>  <fragmenstein_error>  (431) 


$$$$
C2608-P162
     RDKit          3D

 66 70  0  0  0  0  0  0  0  0999 V2000
    2.2978   -5.2282   25.6646 O   0  0  0  0  0  0  0  0  0  0  0  0
    2.8597   -4.3067   25.1158 C   0  0  0  0  0  0  0  0  0  0  0  0
    4.1527   -3.7572   25.3377 N   0  0  0  0  0  0  0  0  0  0  0  0
    5.2553   -4.1954   26.2273 C   0  0  0  0  0  0  0  0  0  0  0  0
    5.3413   -3.9474   27.7822 C   0  0  0  0  0  0  0  0  0  0  0  0
    4.4025   -4.2783   28.6439 N   0  0  0  0  0  0  0  0  0  0  0  0
    5.0179   -4.7356   29.7980 N   0  0  0  0  0  0  0  0  0  0  0  0
    6.3147   -4.7544   29.5740 C   0  0  0  0  0  0  0  0  0  0  0  0
    7.2871   -5.5509   30.2675 C   0  0  0  0  0  0  0  0  0  0  0  0
    7.2557   -5.9567   31.5876 C   0  0  0  0  0  0  0  0  0  0  0  0
    8.3085   -6.8659   31.9134 C   0  0  0  0  0  0  0  0  0  0  0  0
    9.1267   -7.1141   30.8353 C   0  0  0  0  0  0  0  0  0  0  0  0
    8.6420   -6.2311   29.4553 S   0  0  0  0  0  0  0  0  0  0  0  0
    6.5542   -4.0006   28.4523 N   0  0  0  0  0  0  0  0  0  0  0  0
    6.5832   -4.2478   25.5107 C   0  0  0  0  0  0  0  0  0  0  0  0
    6.7862   -5.7374   25.8392 C   0  0  0  0  0  0  0  0  0  0  0  0
    5.2910   -5.8256   26.0991 C   0  0  0  0  0  0  0  0  0  0  0  0
    1.7225   -3.6287   23.5615 C   0  0  0  0  0  0  0  0  0  0  0  0
    0.5586   -5.2264   23.6625 S   0  0  0  0  0  0  0  0  0  0  0  0
    1.2695   -3.9413   21.8997 Cl  0  0  0  0  0  0  0  0  0  0  0  0
    0.1389   -2.8607   24.0060 N   0  0  0  0  0  0  0  0  0  0  0  0
    0.2403   -2.1289   26.3214 C   0  0  0  0  0  0  0  0  0  0  0  0
   -1.2213   -1.5230   27.2163 C   0  0  0  0  0  0  0  0  0  0  0  0
   -1.4327   -0.0610   27.1515 N   0  0  0  0  0  0  0  0  0  0  0  0
   -0.5392    1.0400   28.0212 S   0  0  0  0  0  0  0  0  0  0  0  0
   -1.2971    2.2687   27.9920 O   0  0  0  0  0  0  0  0  0  0  0  0
    0.8231    0.9950   27.5439 O   0  0  0  0  0  0  0  0  0  0  0  0
   -0.5573    0.4562   29.7002 C   0  0  0  0  0  0  0  0  0  0  0  0
   -1.7346   -0.0493   30.2611 C   0  0  0  0  0  0  0  0  0  0  0  0
   -1.7279   -0.5516   31.5643 C   0  0  0  0  0  0  0  0  0  0  0  0
   -0.5439   -0.5307   32.2961 C   0  0  0  0  0  0  0  0  0  0  0  0
   -0.4842   -1.0238   33.5655 O   0  0  0  0  0  0  0  0  0  0  0  0
    0.6258   -0.0082   31.7519 C   0  0  0  0  0  0  0  0  0  0  0  0
    0.6243    0.4837   30.4458 C   0  0  0  0  0  0  0  0  0  0  0  0
    0.9654   -2.8846   27.7143 C   0  0  0  0  0  0  0  0  0  0  0  0
    1.9341   -2.1617   28.3203 N   0  0  0  0  0  0  0  0  0  0  0  0
    2.2999   -2.5401   29.5600 C   0  0  0  0  0  0  0  0  0  0  0  0
    1.7392   -3.5985   30.2206 C   0  0  0  0  0  0  0  0  0  0  0  0
    0.7830   -4.2532   29.5047 C   0  0  0  0  0  0  0  0  0  0  0  0
    0.1596   -5.3491   30.0015 O   0  0  0  0  0  0  0  0  0  0  0  0
    0.3471   -3.9273   28.2843 N   0  0  0  0  0  0  0  0  0  0  0  0
    4.2634   -2.9335   24.7507 H   0  0  0  0  0  0  0  0  0  0  0  0
    6.4854   -5.6440   32.2829 H   0  0  0  0  0  0  0  0  0  0  0  0
    8.4490   -7.3223   32.8859 H   0  0  0  0  0  0  0  0  0  0  0  0
    9.9900   -7.7652   30.7943 H   0  0  0  0  0  0  0  0  0  0  0  0
    7.4611   -3.9344   28.0186 H   0  0  0  0  0  0  0  0  0  0  0  0
    6.4475   -4.1143   24.4384 H   0  0  0  0  0  0  0  0  0  0  0  0
    7.3392   -3.5534   25.8861 H   0  0  0  0  0  0  0  0  0  0  0  0
    7.1423   -6.3628   25.0151 H   0  0  0  0  0  0  0  0  0  0  0  0
    7.4140   -5.9336   26.7095 H   0  0  0  0  0  0  0  0  0  0  0  0
    5.0111   -6.4060   26.9853 H   0  0  0  0  0  0  0  0  0  0  0  0
    4.7564   -6.2648   25.2512 H   0  0  0  0  0  0  0  0  0  0  0  0
    1.1837   -5.7407   24.6996 H   0  0  0  0  0  0  0  0  0  0  0  0
   -0.4985   -3.6572   23.8390 H   0  0  0  0  0  0  0  0  0  0  0  0
    0.9085   -1.1594   26.5571 H   0  0  0  0  0  0  0  0  0  0  0  0
   -1.1413   -1.8292   28.2623 H   0  0  0  0  0  0  0  0  0  0  0  0
   -2.1477   -1.9973   26.8673 H   0  0  0  0  0  0  0  0  0  0  0  0
   -2.3261    0.2751   26.7990 H   0  0  0  0  0  0  0  0  0  0  0  0
   -2.6483   -0.0663   29.6800 H   0  0  0  0  0  0  0  0  0  0  0  0
   -2.6425   -0.9551   31.9868 H   0  0  0  0  0  0  0  0  0  0  0  0
   -1.3358   -1.4338   33.7920 H   0  0  0  0  0  0  0  0  0  0  0  0
    1.5406    0.0051   32.3383 H   0  0  0  0  0  0  0  0  0  0  0  0
    1.5438    0.8736   30.0136 H   0  0  0  0  0  0  0  0  0  0  0  0
    3.0992   -1.9587   30.0083 H   0  0  0  0  0  0  0  0  0  0  0  0
    2.0592   -3.9104   31.2014 H   0  0  0  0  0  0  0  0  0  0  0  0
   -0.3528   -5.5622   29.1958 H   0  0  0  0  0  0  0  0  0  0  0  0
  1  2  2  0
  2  3  1  0
  3  4  1  0
  4  5  1  0
  5  6  2  0
  6  7  1  0
  7  8  2  0
  8  9  1  0
  9 10  2  0
 10 11  1  0
 11 12  2  0
 12 13  1  0
  8 14  1  0
  4 15  1  0
 15 16  1  0
 16 17  1  0
  2 18  1  0
 18 19  1  0
 18 20  1  0
 18 21  1  0
 21 22  1  0
 22 23  1  0
 23 24  1  0
 24 25  1  0
 25 26  2  0
 25 27  2  0
 25 28  1  0
 28 29  2  0
 29 30  1  0
 30 31  2  0
 31 32  1  0
 31 33  1  0
 33 34  2  0
 22 35  1  0
 35 36  2  0
 36 37  1  0
 37 38  2  0
 38 39  1  0
 39 40  1  0
 39 41  2  0
 17  4  1  0
 34 28  1  0
 41 35  1  0
 14  5  1  0
 13  9  1  0
  3 42  1  0
 10 43  1  0
 11 44  1  0
 12 45  1  0
 14 46  1  0
 15 47  1  0
 15 48  1  0
 16 49  1  0
 16 50  1  0
 17 51  1  0
 17 52  1  0
 19 53  1  0
 21 54  1  0
 22 55  1  0
 23 56  1  0
 23 57  1  0
 24 58  1  0
 29 59  1  0
 30 60  1  0
 32 61  1  0
 33 62  1  0
 34 63  1  0
 37 64  1  0
 38 65  1  0
 40 66  1  0
M  END
>  <Energy>  (432) 
723.65771274812494

>  <compound_id>  (432) 
2608

>  <target_id>  (432) 
1

>  <reference_id>  (432) 
162

>  <inspiration_ids>  (432) 
[175, 162]

>  <energy_score>  (432) 
632.0354677556812

>  <distance_score>  (432) 
4.936823876745034

>  <path>  (432) 
/opt/xchem-fragalysis-2/maxwin/BulkDock/SCRATCH/505736/C2608-P162/C2608-P162.minimised.mol

>  <scratch_subdir>  (432) 
/opt/xchem-fragalysis-2/maxwin/BulkDock/SCRATCH/505736/C2608-P162

>  <fragmenstein_runtime>  (432) 
16.281920671463013

>  <fragmenstein_outcome>  (432) 
too moved

>  <fragmenstein_mode>  (432) 
expansion

>  <fragmenstein_error>  (432) 


$$$$
C2609-P175
     RDKit          3D

 69 73  0  0  0  0  0  0  0  0999 V2000
    3.6078   -4.6253   29.1501 O   0  0  0  0  0  0  0  0  0  0  0  0
    3.9870   -3.9963   28.1940 C   0  0  0  0  0  0  0  0  0  0  0  0
    4.9293   -4.3434   27.1488 N   0  0  0  0  0  0  0  0  0  0  0  0
    5.6384   -5.5938   26.8712 C   0  0  0  0  0  0  0  0  0  0  0  0
    6.4013   -6.2087   28.0935 C   0  0  0  0  0  0  0  0  0  0  0  0
    6.4635   -5.7027   29.3053 N   0  0  0  0  0  0  0  0  0  0  0  0
    7.1934   -6.5714   30.0899 N   0  0  0  0  0  0  0  0  0  0  0  0
    7.5549   -7.5931   29.3427 C   0  0  0  0  0  0  0  0  0  0  0  0
    8.2710   -8.7503   29.7820 C   0  0  0  0  0  0  0  0  0  0  0  0
    8.7756   -8.9733   31.0482 C   0  0  0  0  0  0  0  0  0  0  0  0
    9.4138  -10.2420   31.1685 C   0  0  0  0  0  0  0  0  0  0  0  0
    9.3785  -10.9492   29.9883 C   0  0  0  0  0  0  0  0  0  0  0  0
    8.5845  -10.0822   28.7469 S   0  0  0  0  0  0  0  0  0  0  0  0
    7.1013   -7.3845   28.0729 N   0  0  0  0  0  0  0  0  0  0  0  0
    6.4765   -5.5410   25.5675 C   0  0  0  0  0  0  0  0  0  0  0  0
    5.8149   -6.8482   25.1055 C   0  0  0  0  0  0  0  0  0  0  0  0
    4.7076   -6.6146   26.1432 C   0  0  0  0  0  0  0  0  0  0  0  0
    3.3025   -2.5525   27.8900 C   0  0  0  0  0  0  0  0  0  0  0  0
    1.5146   -2.8750   27.8891 S   0  0  0  0  0  0  0  0  0  0  0  0
    3.8114   -1.9959   26.1762 Cl  0  0  0  0  0  0  0  0  0  0  0  0
    3.6826   -1.4059   28.7036 N   0  0  0  0  0  0  0  0  0  0  0  0
    3.4779   -1.3344   30.1550 C   0  0  0  0  0  0  0  0  0  0  0  0
    2.1240   -1.0311   30.9111 C   0  0  0  0  0  0  0  0  0  0  0  0
    1.0420   -0.2008   30.2034 C   0  0  0  0  0  0  0  0  0  0  0  0
    1.4426    1.1899   30.0026 N   0  0  0  0  0  0  0  0  0  0  0  0
    1.6088    1.8487   28.4812 S   0  0  0  0  0  0  0  0  0  0  0  0
    2.2684    0.8614   27.6553 O   0  0  0  0  0  0  0  0  0  0  0  0
    2.1847    3.1581   28.6924 O   0  0  0  0  0  0  0  0  0  0  0  0
   -0.0524    2.0530   27.8940 C   0  0  0  0  0  0  0  0  0  0  0  0
   -0.7434    0.9601   27.3612 C   0  0  0  0  0  0  0  0  0  0  0  0
   -1.9892    1.1484   26.7545 C   0  0  0  0  0  0  0  0  0  0  0  0
   -2.5238    2.4271   26.6670 C   0  0  0  0  0  0  0  0  0  0  0  0
   -3.6978    2.6726   26.0222 O   0  0  0  0  0  0  0  0  0  0  0  0
   -1.8562    3.5120   27.2266 C   0  0  0  0  0  0  0  0  0  0  0  0
   -0.6139    3.3317   27.8389 C   0  0  0  0  0  0  0  0  0  0  0  0
    1.4939   -2.2807   31.4938 C   0  0  0  0  0  0  0  0  0  0  0  0
    0.5814   -2.1510   32.4773 N   0  0  0  0  0  0  0  0  0  0  0  0
    0.0762   -3.2962   32.9868 C   0  0  0  0  0  0  0  0  0  0  0  0
    0.4476   -4.5484   32.5625 C   0  0  0  0  0  0  0  0  0  0  0  0
    1.3778   -4.5501   31.5678 C   0  0  0  0  0  0  0  0  0  0  0  0
    1.8698   -5.7005   31.0483 O   0  0  0  0  0  0  0  0  0  0  0  0
    1.8941   -3.4598   31.0101 N   0  0  0  0  0  0  0  0  0  0  0  0
    5.0704   -3.5327   26.5469 H   0  0  0  0  0  0  0  0  0  0  0  0
    8.6816   -8.2566   31.8566 H   0  0  0  0  0  0  0  0  0  0  0  0
    9.8690  -10.6180   32.0769 H   0  0  0  0  0  0  0  0  0  0  0  0
    9.7772  -11.9370   29.7987 H   0  0  0  0  0  0  0  0  0  0  0  0
    7.2417   -8.0036   27.2897 H   0  0  0  0  0  0  0  0  0  0  0  0
    7.5605   -5.6067   25.6947 H   0  0  0  0  0  0  0  0  0  0  0  0
    6.2525   -4.6899   24.9142 H   0  0  0  0  0  0  0  0  0  0  0  0
    6.4178   -7.7433   25.2879 H   0  0  0  0  0  0  0  0  0  0  0  0
    5.4863   -6.8646   24.0655 H   0  0  0  0  0  0  0  0  0  0  0  0
    4.4101   -7.5015   26.7105 H   0  0  0  0  0  0  0  0  0  0  0  0
    3.8000   -6.1731   25.7137 H   0  0  0  0  0  0  0  0  0  0  0  0
    1.5240   -3.5378   29.0554 H   0  0  0  0  0  0  0  0  0  0  0  0
    3.2662   -0.5829   28.2471 H   0  0  0  0  0  0  0  0  0  0  0  0
    4.1168   -0.4832   30.4338 H   0  0  0  0  0  0  0  0  0  0  0  0
    3.9921   -2.1848   30.6210 H   0  0  0  0  0  0  0  0  0  0  0  0
    2.4288   -0.4505   31.7962 H   0  0  0  0  0  0  0  0  0  0  0  0
    0.1297   -0.1624   30.8127 H   0  0  0  0  0  0  0  0  0  0  0  0
    0.7407   -0.6625   29.2672 H   0  0  0  0  0  0  0  0  0  0  0  0
    1.6314    1.8122   30.7861 H   0  0  0  0  0  0  0  0  0  0  0  0
   -0.3094   -0.0372   27.3618 H   0  0  0  0  0  0  0  0  0  0  0  0
   -2.5039    0.2891   26.3354 H   0  0  0  0  0  0  0  0  0  0  0  0
   -3.9053    1.9592   25.3934 H   0  0  0  0  0  0  0  0  0  0  0  0
   -2.2952    4.5044   27.1631 H   0  0  0  0  0  0  0  0  0  0  0  0
   -0.0903    4.1979   28.2381 H   0  0  0  0  0  0  0  0  0  0  0  0
   -0.6564   -3.1682   33.7799 H   0  0  0  0  0  0  0  0  0  0  0  0
    0.0488   -5.4550   32.9892 H   0  0  0  0  0  0  0  0  0  0  0  0
    2.5622   -5.3352   30.4449 H   0  0  0  0  0  0  0  0  0  0  0  0
  1  2  2  0
  2  3  1  0
  3  4  1  0
  4  5  1  0
  5  6  2  0
  6  7  1  0
  7  8  2  0
  8  9  1  0
  9 10  2  0
 10 11  1  0
 11 12  2  0
 12 13  1  0
  8 14  1  0
  4 15  1  0
 15 16  1  0
 16 17  1  0
  2 18  1  0
 18 19  1  0
 18 20  1  0
 18 21  1  0
 21 22  1  0
 22 23  1  0
 23 24  1  0
 24 25  1  0
 25 26  1  0
 26 27  2  0
 26 28  2  0
 26 29  1  0
 29 30  2  0
 30 31  1  0
 31 32  2  0
 32 33  1  0
 32 34  1  0
 34 35  2  0
 23 36  1  0
 36 37  2  0
 37 38  1  0
 38 39  2  0
 39 40  1  0
 40 41  1  0
 40 42  2  0
 17  4  1  0
 35 29  1  0
 42 36  1  0
 14  5  1  0
 13  9  1  0
  3 43  1  0
 10 44  1  0
 11 45  1  0
 12 46  1  0
 14 47  1  0
 15 48  1  0
 15 49  1  0
 16 50  1  0
 16 51  1  0
 17 52  1  0
 17 53  1  0
 19 54  1  0
 21 55  1  0
 22 56  1  0
 22 57  1  0
 23 58  1  0
 24 59  1  0
 24 60  1  0
 25 61  1  0
 30 62  1  0
 31 63  1  0
 33 64  1  0
 34 65  1  0
 35 66  1  0
 38 67  1  0
 39 68  1  0
 41 69  1  0
M  END
>  <Energy>  (433) 
-17.094751018021288

>  <compound_id>  (433) 
2609

>  <target_id>  (433) 
1

>  <reference_id>  (433) 
175

>  <inspiration_ids>  (433) 
[175, 163]

>  <energy_score>  (433) 
-91.220945355921

>  <distance_score>  (433) 
5.04118021377548

>  <path>  (433) 
/opt/xchem-fragalysis-2/maxwin/BulkDock/SCRATCH/505736/C2609-P175/C2609-P175.minimised.mol

>  <scratch_subdir>  (433) 
/opt/xchem-fragalysis-2/maxwin/BulkDock/SCRATCH/505736/C2609-P175

>  <fragmenstein_runtime>  (433) 
18.85655975341797

>  <fragmenstein_outcome>  (433) 
too moved

>  <fragmenstein_mode>  (433) 
expansion

>  <fragmenstein_error>  (433) 


$$$$
C2609-P163
     RDKit          3D

 69 73  0  0  0  0  0  0  0  0999 V2000
    3.5479   -6.4227   28.4650 O   0  0  0  0  0  0  0  0  0  0  0  0
    4.1675   -5.4496   28.1227 C   0  0  0  0  0  0  0  0  0  0  0  0
    5.5628   -5.2858   27.8128 N   0  0  0  0  0  0  0  0  0  0  0  0
    6.6358   -6.2540   27.7216 C   0  0  0  0  0  0  0  0  0  0  0  0
    7.2378   -6.5982   29.0974 C   0  0  0  0  0  0  0  0  0  0  0  0
    7.0236   -5.9462   30.2197 N   0  0  0  0  0  0  0  0  0  0  0  0
    7.8883   -6.4578   31.1666 N   0  0  0  0  0  0  0  0  0  0  0  0
    8.6206   -7.3852   30.5848 C   0  0  0  0  0  0  0  0  0  0  0  0
    9.6986   -8.1191   31.1637 C   0  0  0  0  0  0  0  0  0  0  0  0
    9.9982   -8.2347   32.5050 C   0  0  0  0  0  0  0  0  0  0  0  0
   11.0951   -9.1139   32.7423 C   0  0  0  0  0  0  0  0  0  0  0  0
   11.6164   -9.6201   31.5728 C   0  0  0  0  0  0  0  0  0  0  0  0
   10.7964   -9.0255   30.1979 S   0  0  0  0  0  0  0  0  0  0  0  0
    8.1783   -7.5598   29.3078 N   0  0  0  0  0  0  0  0  0  0  0  0
    7.7056   -5.8466   26.6823 C   0  0  0  0  0  0  0  0  0  0  0  0
    6.9094   -6.6377   25.6238 C   0  0  0  0  0  0  0  0  0  0  0  0
    6.3027   -7.4464   26.7823 C   0  0  0  0  0  0  0  0  0  0  0  0
    3.4339   -4.0806   27.8290 C   0  0  0  0  0  0  0  0  0  0  0  0
    1.6886   -4.1725   28.2520 S   0  0  0  0  0  0  0  0  0  0  0  0
    3.6490   -3.9556   26.0027 Cl  0  0  0  0  0  0  0  0  0  0  0  0
    4.1084   -2.8699   28.3276 N   0  0  0  0  0  0  0  0  0  0  0  0
    3.9876   -2.6507   29.7883 C   0  0  0  0  0  0  0  0  0  0  0  0
    2.9074   -1.6435   30.3017 C   0  0  0  0  0  0  0  0  0  0  0  0
    3.2787   -0.1752   30.0143 C   0  0  0  0  0  0  0  0  0  0  0  0
    2.4782    0.8146   30.7512 N   0  0  0  0  0  0  0  0  0  0  0  0
    1.2206    1.6761   30.0728 S   0  0  0  0  0  0  0  0  0  0  0  0
    1.6519    2.1439   28.7759 O   0  0  0  0  0  0  0  0  0  0  0  0
    0.7166    2.5586   31.1010 O   0  0  0  0  0  0  0  0  0  0  0  0
    0.0319    0.3923   29.8598 C   0  0  0  0  0  0  0  0  0  0  0  0
   -0.3640    0.0144   28.5783 C   0  0  0  0  0  0  0  0  0  0  0  0
   -1.1012   -1.1523   28.4271 C   0  0  0  0  0  0  0  0  0  0  0  0
   -1.3973   -1.9228   29.5457 C   0  0  0  0  0  0  0  0  0  0  0  0
   -1.9881   -3.1376   29.4225 O   0  0  0  0  0  0  0  0  0  0  0  0
   -1.0830   -1.4998   30.8295 C   0  0  0  0  0  0  0  0  0  0  0  0
   -0.3726   -0.3211   30.9944 C   0  0  0  0  0  0  0  0  0  0  0  0
    2.7158   -1.9388   31.7730 C   0  0  0  0  0  0  0  0  0  0  0  0
    1.7179   -2.7870   32.1008 N   0  0  0  0  0  0  0  0  0  0  0  0
    1.5926   -3.1183   33.3974 C   0  0  0  0  0  0  0  0  0  0  0  0
    2.4330   -2.6489   34.3688 C   0  0  0  0  0  0  0  0  0  0  0  0
    3.4116   -1.8066   33.9189 C   0  0  0  0  0  0  0  0  0  0  0  0
    4.3086   -1.2838   34.7934 O   0  0  0  0  0  0  0  0  0  0  0  0
    3.5931   -1.4252   32.6515 N   0  0  0  0  0  0  0  0  0  0  0  0
    5.7505   -4.2970   27.6402 H   0  0  0  0  0  0  0  0  0  0  0  0
    9.4350   -7.7307   33.2826 H   0  0  0  0  0  0  0  0  0  0  0  0
   11.4834   -9.3589   33.7237 H   0  0  0  0  0  0  0  0  0  0  0  0
   12.4493  -10.3014   31.4611 H   0  0  0  0  0  0  0  0  0  0  0  0
    8.5559   -8.2074   28.6330 H   0  0  0  0  0  0  0  0  0  0  0  0
    8.7113   -6.2504   26.8514 H   0  0  0  0  0  0  0  0  0  0  0  0
    7.7922   -4.7677   26.5285 H   0  0  0  0  0  0  0  0  0  0  0  0
    7.5004   -7.2174   24.9118 H   0  0  0  0  0  0  0  0  0  0  0  0
    6.1802   -6.0333   25.0741 H   0  0  0  0  0  0  0  0  0  0  0  0
    6.8448   -8.3760   26.9893 H   0  0  0  0  0  0  0  0  0  0  0  0
    5.2443   -7.6823   26.6471 H   0  0  0  0  0  0  0  0  0  0  0  0
    1.6050   -5.5092   28.1725 H   0  0  0  0  0  0  0  0  0  0  0  0
    3.6875   -2.0895   27.8234 H   0  0  0  0  0  0  0  0  0  0  0  0
    4.9691   -2.2843   30.1186 H   0  0  0  0  0  0  0  0  0  0  0  0
    3.8804   -3.6221   30.2909 H   0  0  0  0  0  0  0  0  0  0  0  0
    1.9544   -1.8442   29.8066 H   0  0  0  0  0  0  0  0  0  0  0  0
    3.2171    0.0123   28.9366 H   0  0  0  0  0  0  0  0  0  0  0  0
    4.3251    0.0065   30.2909 H   0  0  0  0  0  0  0  0  0  0  0  0
    2.6542    0.9626   31.7445 H   0  0  0  0  0  0  0  0  0  0  0  0
   -0.0652    0.5831   27.7016 H   0  0  0  0  0  0  0  0  0  0  0  0
   -1.4027   -1.4692   27.4353 H   0  0  0  0  0  0  0  0  0  0  0  0
   -2.1945   -3.3016   28.4726 H   0  0  0  0  0  0  0  0  0  0  0  0
   -1.3368   -2.1149   31.6869 H   0  0  0  0  0  0  0  0  0  0  0  0
   -0.0616   -0.0122   31.9889 H   0  0  0  0  0  0  0  0  0  0  0  0
    0.7755   -3.7934   33.6326 H   0  0  0  0  0  0  0  0  0  0  0  0
    2.3371   -2.9189   35.4096 H   0  0  0  0  0  0  0  0  0  0  0  0
    4.8898   -0.7852   34.1919 H   0  0  0  0  0  0  0  0  0  0  0  0
  1  2  2  0
  2  3  1  0
  3  4  1  0
  4  5  1  0
  5  6  2  0
  6  7  1  0
  7  8  2  0
  8  9  1  0
  9 10  2  0
 10 11  1  0
 11 12  2  0
 12 13  1  0
  8 14  1  0
  4 15  1  0
 15 16  1  0
 16 17  1  0
  2 18  1  0
 18 19  1  0
 18 20  1  0
 18 21  1  0
 21 22  1  0
 22 23  1  0
 23 24  1  0
 24 25  1  0
 25 26  1  0
 26 27  2  0
 26 28  2  0
 26 29  1  0
 29 30  2  0
 30 31  1  0
 31 32  2  0
 32 33  1  0
 32 34  1  0
 34 35  2  0
 23 36  1  0
 36 37  2  0
 37 38  1  0
 38 39  2  0
 39 40  1  0
 40 41  1  0
 40 42  2  0
 17  4  1  0
 35 29  1  0
 42 36  1  0
 14  5  1  0
 13  9  1  0
  3 43  1  0
 10 44  1  0
 11 45  1  0
 12 46  1  0
 14 47  1  0
 15 48  1  0
 15 49  1  0
 16 50  1  0
 16 51  1  0
 17 52  1  0
 17 53  1  0
 19 54  1  0
 21 55  1  0
 22 56  1  0
 22 57  1  0
 23 58  1  0
 24 59  1  0
 24 60  1  0
 25 61  1  0
 30 62  1  0
 31 63  1  0
 33 64  1  0
 34 65  1  0
 35 66  1  0
 38 67  1  0
 39 68  1  0
 41 69  1  0
M  END
>  <Energy>  (434) 
-26.205576428249913

>  <compound_id>  (434) 
2609

>  <target_id>  (434) 
1

>  <reference_id>  (434) 
163

>  <inspiration_ids>  (434) 
[175, 163]

>  <energy_score>  (434) 
-100.33177076614868

>  <distance_score>  (434) 
5.426663306186545

>  <path>  (434) 
/opt/xchem-fragalysis-2/maxwin/BulkDock/SCRATCH/505736/C2609-P163/C2609-P163.minimised.mol

>  <scratch_subdir>  (434) 
/opt/xchem-fragalysis-2/maxwin/BulkDock/SCRATCH/505736/C2609-P163

>  <fragmenstein_runtime>  (434) 
22.484221696853638

>  <fragmenstein_outcome>  (434) 
too moved

>  <fragmenstein_mode>  (434) 
expansion

>  <fragmenstein_error>  (434) 


$$$$
C2610-P175
     RDKit          3D

 73 77  0  0  0  0  0  0  0  0999 V2000
   -3.5587   -7.9414   21.9091 C   0  0  0  0  0  0  0  0  0  0  0  0
   -2.2470   -7.3841   22.3154 C   0  0  0  0  0  0  0  0  0  0  0  0
   -2.5200   -6.1728   23.6020 C   0  0  0  0  0  0  0  0  0  0  0  0
   -1.5827   -5.2677   24.1437 C   0  0  0  0  0  0  0  0  0  0  0  0
   -1.5653   -5.4785   25.5087 O   0  0  0  0  0  0  0  0  0  0  0  0
   -0.1786   -4.9711   23.5963 N   0  0  0  0  0  0  0  0  0  0  0  0
    0.4765   -5.8937   22.6968 C   0  0  0  0  0  0  0  0  0  0  0  0
    1.3628   -6.2143   23.8801 C   0  0  0  0  0  0  0  0  0  0  0  0
    0.7267   -7.4427   23.4929 C   0  0  0  0  0  0  0  0  0  0  0  0
   -1.1607   -7.8183   24.1258 N   0  0  0  0  0  0  0  0  0  0  0  0
   -0.7446  -10.0635   24.5020 C   0  0  0  0  0  0  0  0  0  0  0  0
   -0.0634  -12.2927   23.7273 S   0  0  0  0  0  0  0  0  0  0  0  0
    0.2462  -11.3117   22.7114 Cl  0  0  0  0  0  0  0  0  0  0  0  0
    1.5043  -10.3745   24.6246 C   0  0  0  0  0  0  0  0  0  0  0  0
    1.9905  -11.4086   24.2844 O   0  0  0  0  0  0  0  0  0  0  0  0
    2.6199   -9.0687   25.1931 N   0  0  0  0  0  0  0  0  0  0  0  0
    4.4191   -8.9471   25.2524 C   0  0  0  0  0  0  0  0  0  0  0  0
    5.9193   -9.8628   25.2029 C   0  0  0  0  0  0  0  0  0  0  0  0
    6.9918   -9.1181   24.8798 N   0  0  0  0  0  0  0  0  0  0  0  0
    8.1180   -9.5563   25.4615 N   0  0  0  0  0  0  0  0  0  0  0  0
    7.7111  -10.3993   26.3713 C   0  0  0  0  0  0  0  0  0  0  0  0
    8.3826  -10.4112   27.6431 C   0  0  0  0  0  0  0  0  0  0  0  0
    9.7138  -10.0683   27.8406 C   0  0  0  0  0  0  0  0  0  0  0  0
   10.1046  -10.0588   29.2114 C   0  0  0  0  0  0  0  0  0  0  0  0
    9.0374  -10.3150   30.0361 C   0  0  0  0  0  0  0  0  0  0  0  0
    7.5957  -10.4966   29.1477 S   0  0  0  0  0  0  0  0  0  0  0  0
    6.4927  -10.9214   25.9172 N   0  0  0  0  0  0  0  0  0  0  0  0
    4.6812   -7.9771   26.5575 C   0  0  0  0  0  0  0  0  0  0  0  0
    5.3725   -6.9124   25.7421 C   0  0  0  0  0  0  0  0  0  0  0  0
    4.8118   -7.5580   24.4964 C   0  0  0  0  0  0  0  0  0  0  0  0
    2.3387   -5.4673   25.4404 C   0  0  0  0  0  0  0  0  0  0  0  0
    1.8106   -4.7857   26.7606 N   0  0  0  0  0  0  0  0  0  0  0  0
    2.6255   -5.1446   28.2548 S   0  0  0  0  0  0  0  0  0  0  0  0
    3.8431   -4.3843   28.3313 O   0  0  0  0  0  0  0  0  0  0  0  0
    2.6315   -6.5893   28.3968 O   0  0  0  0  0  0  0  0  0  0  0  0
    1.5402   -4.6183   29.4327 N   0  0  0  0  0  0  0  0  0  0  0  0
    1.3571   -3.1637   29.6741 C   0  0  0  0  0  0  0  0  0  0  0  0
    1.3592   -2.9942   31.1999 C   0  0  0  0  0  0  0  0  0  0  0  0
    0.9356   -4.3515   31.7218 C   0  0  0  0  0  0  0  0  0  0  0  0
    1.6612   -5.2812   30.7661 C   0  0  0  0  0  0  0  0  0  0  0  0
   -0.5046   -7.2589   21.8477 N   0  0  0  0  0  0  0  0  0  0  0  0
   -3.7046   -8.9421   22.3082 H   0  0  0  0  0  0  0  0  0  0  0  0
   -3.5275   -7.9012   20.8460 H   0  0  0  0  0  0  0  0  0  0  0  0
   -4.3160   -7.3065   22.3352 H   0  0  0  0  0  0  0  0  0  0  0  0
   -3.5469   -6.0691   23.7234 H   0  0  0  0  0  0  0  0  0  0  0  0
   -1.8288   -6.4096   25.6667 H   0  0  0  0  0  0  0  0  0  0  0  0
    2.3132   -6.7819   23.8988 H   0  0  0  0  0  0  0  0  0  0  0  0
    0.8349   -7.9905   22.4881 H   0  0  0  0  0  0  0  0  0  0  0  0
    1.5058   -8.0984   23.9040 H   0  0  0  0  0  0  0  0  0  0  0  0
   -0.9246   -7.6437   23.1104 H   0  0  0  0  0  0  0  0  0  0  0  0
    0.9978  -12.5049   24.5072 H   0  0  0  0  0  0  0  0  0  0  0  0
    2.0849   -8.3314   25.5092 H   0  0  0  0  0  0  0  0  0  0  0  0
   10.3885   -9.8528   27.0190 H   0  0  0  0  0  0  0  0  0  0  0  0
   11.1078   -9.8581   29.5667 H   0  0  0  0  0  0  0  0  0  0  0  0
    9.0281  -10.3615   31.1166 H   0  0  0  0  0  0  0  0  0  0  0  0
    5.9830  -11.6822   26.3363 H   0  0  0  0  0  0  0  0  0  0  0  0
    3.7432   -7.6901   26.9954 H   0  0  0  0  0  0  0  0  0  0  0  0
    5.3617   -8.2567   27.3628 H   0  0  0  0  0  0  0  0  0  0  0  0
    6.4655   -6.9322   25.8142 H   0  0  0  0  0  0  0  0  0  0  0  0
    5.0739   -5.8800   25.9369 H   0  0  0  0  0  0  0  0  0  0  0  0
    5.5301   -7.4549   23.6918 H   0  0  0  0  0  0  0  0  0  0  0  0
    3.9677   -7.0439   24.1404 H   0  0  0  0  0  0  0  0  0  0  0  0
    3.1087   -4.7489   25.1226 H   0  0  0  0  0  0  0  0  0  0  0  0
    2.9007   -6.3124   25.8160 H   0  0  0  0  0  0  0  0  0  0  0  0
    0.8275   -5.0004   26.9575 H   0  0  0  0  0  0  0  0  0  0  0  0
    0.3895   -2.8683   29.2543 H   0  0  0  0  0  0  0  0  0  0  0  0
    2.1374   -2.5528   29.2124 H   0  0  0  0  0  0  0  0  0  0  0  0
    2.3747   -2.7612   31.5430 H   0  0  0  0  0  0  0  0  0  0  0  0
    0.6986   -2.1864   31.5271 H   0  0  0  0  0  0  0  0  0  0  0  0
   -0.1499   -4.4731   31.6262 H   0  0  0  0  0  0  0  0  0  0  0  0
    1.2160   -4.5154   32.7656 H   0  0  0  0  0  0  0  0  0  0  0  0
    2.7150   -5.3691   31.0509 H   0  0  0  0  0  0  0  0  0  0  0  0
    1.1963   -6.2707   30.7513 H   0  0  0  0  0  0  0  0  0  0  0  0
  1  2  1  0
  2  3  2  0
  3  4  1  0
  4  5  1  0
  4  6  2  0
  6  7  1  0
  7  8  1  0
  8  9  1  0
  9 10  1  0
 10 11  1  0
 11 12  1  0
 11 13  1  0
 11 14  1  0
 14 15  2  0
 14 16  1  0
 16 17  1  0
 17 18  1  0
 18 19  2  0
 19 20  1  0
 20 21  2  0
 21 22  1  0
 22 23  2  0
 23 24  1  0
 24 25  2  0
 25 26  1  0
 21 27  1  0
 17 28  1  0
 28 29  1  0
 29 30  1  0
  8 31  1  0
 31 32  1  0
 32 33  1  0
 33 34  2  0
 33 35  2  0
 33 36  1  0
 36 37  1  0
 37 38  1  0
 38 39  1  0
 39 40  1  0
  7 41  2  0
 41  2  1  0
 30 17  1  0
 40 36  1  0
 27 18  1  0
 26 22  1  0
  1 42  1  0
  1 43  1  0
  1 44  1  0
  3 45  1  0
  5 46  1  0
  8 47  1  0
  9 48  1  0
  9 49  1  0
 10 50  1  0
 12 51  1  0
 16 52  1  0
 23 53  1  0
 24 54  1  0
 25 55  1  0
 27 56  1  0
 28 57  1  0
 28 58  1  0
 29 59  1  0
 29 60  1  0
 30 61  1  0
 30 62  1  0
 31 63  1  0
 31 64  1  0
 32 65  1  0
 37 66  1  0
 37 67  1  0
 38 68  1  0
 38 69  1  0
 39 70  1  0
 39 71  1  0
 40 72  1  0
 40 73  1  0
M  END
>  <Energy>  (435) 
1570.8892458417602

>  <compound_id>  (435) 
2610

>  <target_id>  (435) 
1

>  <reference_id>  (435) 
175

>  <inspiration_ids>  (435) 
[175, 164]

>  <energy_score>  (435) 
1603.617393777839

>  <distance_score>  (435) 
7.508054719889206

>  <path>  (435) 
/opt/xchem-fragalysis-2/maxwin/BulkDock/SCRATCH/505736/C2610-P175/C2610-P175.minimised.mol

>  <scratch_subdir>  (435) 
/opt/xchem-fragalysis-2/maxwin/BulkDock/SCRATCH/505736/C2610-P175

>  <fragmenstein_runtime>  (435) 
70.89165306091309

>  <fragmenstein_outcome>  (435) 
too moved

>  <fragmenstein_mode>  (435) 
expansion

>  <fragmenstein_error>  (435) 


$$$$
C2610-P164
     RDKit          3D

 73 77  0  0  0  0  0  0  0  0999 V2000
   -0.8682   -6.9704   32.5166 C   0  0  0  0  0  0  0  0  0  0  0  0
    0.4918   -6.3603   32.6239 C   0  0  0  0  0  0  0  0  0  0  0  0
    1.3256   -6.7254   33.6525 C   0  0  0  0  0  0  0  0  0  0  0  0
    2.5565   -6.1358   33.6304 C   0  0  0  0  0  0  0  0  0  0  0  0
    3.4787   -6.4634   34.5725 O   0  0  0  0  0  0  0  0  0  0  0  0
    2.9799   -5.2422   32.7352 N   0  0  0  0  0  0  0  0  0  0  0  0
    2.0525   -4.8531   31.8387 C   0  0  0  0  0  0  0  0  0  0  0  0
    2.2739   -3.4967   31.1996 C   0  0  0  0  0  0  0  0  0  0  0  0
    1.8548   -3.3539   29.6881 C   0  0  0  0  0  0  0  0  0  0  0  0
    2.7627   -3.6775   28.5312 N   0  0  0  0  0  0  0  0  0  0  0  0
    3.1344   -5.0883   28.3390 C   0  0  0  0  0  0  0  0  0  0  0  0
    3.1065   -5.3527   26.5329 S   0  0  0  0  0  0  0  0  0  0  0  0
    2.0504   -6.2590   29.0368 Cl  0  0  0  0  0  0  0  0  0  0  0  0
    4.6101   -5.4422   28.7038 C   0  0  0  0  0  0  0  0  0  0  0  0
    4.9199   -6.5781   28.9395 O   0  0  0  0  0  0  0  0  0  0  0  0
    5.4121   -4.2541   28.5945 N   0  0  0  0  0  0  0  0  0  0  0  0
    6.8477   -4.0705   28.6379 C   0  0  0  0  0  0  0  0  0  0  0  0
    7.5601   -5.1413   29.5166 C   0  0  0  0  0  0  0  0  0  0  0  0
    7.8396   -5.0177   30.7941 N   0  0  0  0  0  0  0  0  0  0  0  0
    8.5865   -6.1190   31.1602 N   0  0  0  0  0  0  0  0  0  0  0  0
    8.7308   -6.8877   30.0988 C   0  0  0  0  0  0  0  0  0  0  0  0
    9.5689   -8.0417   30.0020 C   0  0  0  0  0  0  0  0  0  0  0  0
   10.4023   -8.5340   30.9881 C   0  0  0  0  0  0  0  0  0  0  0  0
   11.1422   -9.6764   30.5625 C   0  0  0  0  0  0  0  0  0  0  0  0
   10.8479  -10.0240   29.2632 C   0  0  0  0  0  0  0  0  0  0  0  0
    9.6849   -8.9793   28.5689 S   0  0  0  0  0  0  0  0  0  0  0  0
    8.0051   -6.3556   29.0732 N   0  0  0  0  0  0  0  0  0  0  0  0
    7.3242   -2.6134   28.8266 C   0  0  0  0  0  0  0  0  0  0  0  0
    8.3207   -2.8374   27.6704 C   0  0  0  0  0  0  0  0  0  0  0  0
    7.4161   -3.9814   27.1940 C   0  0  0  0  0  0  0  0  0  0  0  0
    1.4237   -2.5124   32.0751 C   0  0  0  0  0  0  0  0  0  0  0  0
    1.5440   -2.7771   33.5501 N   0  0  0  0  0  0  0  0  0  0  0  0
    0.1330   -2.8551   34.4542 S   0  0  0  0  0  0  0  0  0  0  0  0
   -0.9416   -3.2881   33.5948 O   0  0  0  0  0  0  0  0  0  0  0  0
    0.0675   -1.6228   35.2019 O   0  0  0  0  0  0  0  0  0  0  0  0
    0.4889   -4.1020   35.5221 N   0  0  0  0  0  0  0  0  0  0  0  0
   -0.6704   -4.6290   36.2984 C   0  0  0  0  0  0  0  0  0  0  0  0
   -0.1464   -4.8892   37.7082 C   0  0  0  0  0  0  0  0  0  0  0  0
    1.3515   -5.0098   37.5166 C   0  0  0  0  0  0  0  0  0  0  0  0
    1.6218   -3.9488   36.4578 C   0  0  0  0  0  0  0  0  0  0  0  0
    0.8300   -5.4166   31.7183 N   0  0  0  0  0  0  0  0  0  0  0  0
   -0.8069   -8.0619   32.5605 H   0  0  0  0  0  0  0  0  0  0  0  0
   -1.3342   -6.7036   31.5652 H   0  0  0  0  0  0  0  0  0  0  0  0
   -1.5007   -6.6155   33.3343 H   0  0  0  0  0  0  0  0  0  0  0  0
    1.0422   -7.4265   34.4222 H   0  0  0  0  0  0  0  0  0  0  0  0
    4.2230   -5.8975   34.2913 H   0  0  0  0  0  0  0  0  0  0  0  0
    3.3324   -3.2235   31.2968 H   0  0  0  0  0  0  0  0  0  0  0  0
    0.8771   -3.8239   29.5203 H   0  0  0  0  0  0  0  0  0  0  0  0
    1.6658   -2.2813   29.5412 H   0  0  0  0  0  0  0  0  0  0  0  0
    2.2387   -3.4136   27.6966 H   0  0  0  0  0  0  0  0  0  0  0  0
    4.3091   -4.8136   26.2758 H   0  0  0  0  0  0  0  0  0  0  0  0
    4.7965   -3.4484   28.4662 H   0  0  0  0  0  0  0  0  0  0  0  0
   10.4833   -8.0828   31.9712 H   0  0  0  0  0  0  0  0  0  0  0  0
   11.8536  -10.2128   31.1788 H   0  0  0  0  0  0  0  0  0  0  0  0
   11.2548  -10.8448   28.6878 H   0  0  0  0  0  0  0  0  0  0  0  0
    7.9155   -6.7379   28.1438 H   0  0  0  0  0  0  0  0  0  0  0  0
    6.5653   -1.8532   28.6026 H   0  0  0  0  0  0  0  0  0  0  0  0
    7.7812   -2.3639   29.7888 H   0  0  0  0  0  0  0  0  0  0  0  0
    9.3132   -3.1660   27.9993 H   0  0  0  0  0  0  0  0  0  0  0  0
    8.4365   -2.0029   26.9745 H   0  0  0  0  0  0  0  0  0  0  0  0
    7.9350   -4.8686   26.8281 H   0  0  0  0  0  0  0  0  0  0  0  0
    6.6854   -3.6712   26.4369 H   0  0  0  0  0  0  0  0  0  0  0  0
    0.3778   -2.5688   31.7551 H   0  0  0  0  0  0  0  0  0  0  0  0
    1.7511   -1.4827   31.8883 H   0  0  0  0  0  0  0  0  0  0  0  0
    2.2317   -2.1912   34.0198 H   0  0  0  0  0  0  0  0  0  0  0  0
   -1.0033   -5.5615   35.8308 H   0  0  0  0  0  0  0  0  0  0  0  0
   -1.5113   -3.9298   36.3302 H   0  0  0  0  0  0  0  0  0  0  0  0
   -0.3743   -4.0320   38.3533 H   0  0  0  0  0  0  0  0  0  0  0  0
   -0.5918   -5.7794   38.1611 H   0  0  0  0  0  0  0  0  0  0  0  0
    1.6061   -6.0060   37.1355 H   0  0  0  0  0  0  0  0  0  0  0  0
    1.9132   -4.8354   38.4383 H   0  0  0  0  0  0  0  0  0  0  0  0
    1.6217   -2.9522   36.9124 H   0  0  0  0  0  0  0  0  0  0  0  0
    2.5784   -4.1186   35.9590 H   0  0  0  0  0  0  0  0  0  0  0  0
  1  2  1  0
  2  3  2  0
  3  4  1  0
  4  5  1  0
  4  6  2  0
  6  7  1  0
  7  8  1  0
  8  9  1  0
  9 10  1  0
 10 11  1  0
 11 12  1  0
 11 13  1  0
 11 14  1  0
 14 15  2  0
 14 16  1  0
 16 17  1  0
 17 18  1  0
 18 19  2  0
 19 20  1  0
 20 21  2  0
 21 22  1  0
 22 23  2  0
 23 24  1  0
 24 25  2  0
 25 26  1  0
 21 27  1  0
 17 28  1  0
 28 29  1  0
 29 30  1  0
  8 31  1  0
 31 32  1  0
 32 33  1  0
 33 34  2  0
 33 35  2  0
 33 36  1  0
 36 37  1  0
 37 38  1  0
 38 39  1  0
 39 40  1  0
  7 41  2  0
 41  2  1  0
 30 17  1  0
 40 36  1  0
 27 18  1  0
 26 22  1  0
  1 42  1  0
  1 43  1  0
  1 44  1  0
  3 45  1  0
  5 46  1  0
  8 47  1  0
  9 48  1  0
  9 49  1  0
 10 50  1  0
 12 51  1  0
 16 52  1  0
 23 53  1  0
 24 54  1  0
 25 55  1  0
 27 56  1  0
 28 57  1  0
 28 58  1  0
 29 59  1  0
 29 60  1  0
 30 61  1  0
 30 62  1  0
 31 63  1  0
 31 64  1  0
 32 65  1  0
 37 66  1  0
 37 67  1  0
 38 68  1  0
 38 69  1  0
 39 70  1  0
 39 71  1  0
 40 72  1  0
 40 73  1  0
M  END
>  <Energy>  (436) 
-136.01719225013935

>  <compound_id>  (436) 
2610

>  <target_id>  (436) 
1

>  <reference_id>  (436) 
164

>  <inspiration_ids>  (436) 
[175, 164]

>  <energy_score>  (436) 
-103.28904431408091

>  <distance_score>  (436) 
6.3501987728913125

>  <path>  (436) 
/opt/xchem-fragalysis-2/maxwin/BulkDock/SCRATCH/505736/C2610-P164/C2610-P164.minimised.mol

>  <scratch_subdir>  (436) 
/opt/xchem-fragalysis-2/maxwin/BulkDock/SCRATCH/505736/C2610-P164

>  <fragmenstein_runtime>  (436) 
75.26270413398743

>  <fragmenstein_outcome>  (436) 
too moved

>  <fragmenstein_mode>  (436) 
expansion

>  <fragmenstein_error>  (436) 


$$$$
C2611-P175
     RDKit          3D

 71 75  0  0  0  0  0  0  0  0999 V2000
   -3.3501   -3.2131   23.7814 C   0  0  0  0  0  0  0  0  0  0  0  0
   -2.9733   -4.9625   23.3831 C   0  0  0  0  0  0  0  0  0  0  0  0
   -4.1168   -5.9734   22.2183 C   0  0  0  0  0  0  0  0  0  0  0  0
   -3.8680   -7.2636   22.2453 C   0  0  0  0  0  0  0  0  0  0  0  0
   -4.1769   -8.4546   22.0482 O   0  0  0  0  0  0  0  0  0  0  0  0
   -2.7102   -7.4261   22.7186 N   0  0  0  0  0  0  0  0  0  0  0  0
   -2.2391   -6.3723   23.7619 C   0  0  0  0  0  0  0  0  0  0  0  0
   -1.5323   -7.0731   24.6072 C   0  0  0  0  0  0  0  0  0  0  0  0
    0.0983   -7.1301   23.1845 C   0  0  0  0  0  0  0  0  0  0  0  0
    0.9706   -8.2916   21.9393 N   0  0  0  0  0  0  0  0  0  0  0  0
    2.5868   -8.8130   23.0090 C   0  0  0  0  0  0  0  0  0  0  0  0
    2.2387  -11.1350   23.4119 S   0  0  0  0  0  0  0  0  0  0  0  0
    3.9294  -10.3960   23.7170 Cl  0  0  0  0  0  0  0  0  0  0  0  0
    3.1790   -8.1797   24.6037 C   0  0  0  0  0  0  0  0  0  0  0  0
    2.6035   -8.4992   25.6029 O   0  0  0  0  0  0  0  0  0  0  0  0
    4.3828   -7.3821   24.4225 N   0  0  0  0  0  0  0  0  0  0  0  0
    5.2122   -6.6391   25.4003 C   0  0  0  0  0  0  0  0  0  0  0  0
    5.6866   -7.4281   26.6737 C   0  0  0  0  0  0  0  0  0  0  0  0
    5.2381   -7.1903   27.8904 N   0  0  0  0  0  0  0  0  0  0  0  0
    6.1222   -7.7504   28.7811 N   0  0  0  0  0  0  0  0  0  0  0  0
    7.0662   -8.3600   28.0935 C   0  0  0  0  0  0  0  0  0  0  0  0
    8.1609   -9.0838   28.6580 C   0  0  0  0  0  0  0  0  0  0  0  0
    8.2258   -9.6130   29.9327 C   0  0  0  0  0  0  0  0  0  0  0  0
    9.4665  -10.2609   30.1969 C   0  0  0  0  0  0  0  0  0  0  0  0
   10.3145  -10.1981   29.1154 C   0  0  0  0  0  0  0  0  0  0  0  0
    9.6020   -9.3889   27.7863 S   0  0  0  0  0  0  0  0  0  0  0  0
    6.8028   -8.2143   26.7566 N   0  0  0  0  0  0  0  0  0  0  0  0
    4.6302   -5.2504   25.8181 C   0  0  0  0  0  0  0  0  0  0  0  0
    6.0148   -4.6321   25.5802 C   0  0  0  0  0  0  0  0  0  0  0  0
    6.4037   -5.8741   24.7615 C   0  0  0  0  0  0  0  0  0  0  0  0
   -2.1797   -7.3933   26.4445 C   0  0  0  0  0  0  0  0  0  0  0  0
   -2.0253   -7.0413   28.2651 N   0  0  0  0  0  0  0  0  0  0  0  0
   -0.9622   -7.5522   29.6245 S   0  0  0  0  0  0  0  0  0  0  0  0
   -1.8846   -7.8781   30.6965 O   0  0  0  0  0  0  0  0  0  0  0  0
   -0.0134   -8.5303   29.1328 O   0  0  0  0  0  0  0  0  0  0  0  0
    0.0061   -6.2682   30.3874 C   0  0  0  0  0  0  0  0  0  0  0  0
    0.0249   -4.9006   30.0211 C   0  0  0  0  0  0  0  0  0  0  0  0
    0.8419   -4.2895   30.9465 C   0  0  0  0  0  0  0  0  0  0  0  0
    1.2395   -5.2691   31.8060 N   0  0  0  0  0  0  0  0  0  0  0  0
    2.0385   -5.1034   32.9960 C   0  0  0  0  0  0  0  0  0  0  0  0
    0.7670   -6.4857   31.4847 N   0  0  0  0  0  0  0  0  0  0  0  0
   -2.0085   -5.1649   24.0634 N   0  0  0  0  0  0  0  0  0  0  0  0
   -3.0999   -2.9650   24.7997 H   0  0  0  0  0  0  0  0  0  0  0  0
   -4.3466   -3.1204   23.5354 H   0  0  0  0  0  0  0  0  0  0  0  0
   -2.8513   -2.4240   23.1922 H   0  0  0  0  0  0  0  0  0  0  0  0
   -4.8429   -5.4062   21.6263 H   0  0  0  0  0  0  0  0  0  0  0  0
   -3.6963   -8.9286   22.7400 H   0  0  0  0  0  0  0  0  0  0  0  0
   -1.4180   -6.1607   25.2908 H   0  0  0  0  0  0  0  0  0  0  0  0
    0.4731   -6.0835   22.9486 H   0  0  0  0  0  0  0  0  0  0  0  0
    1.0400   -7.2727   23.6724 H   0  0  0  0  0  0  0  0  0  0  0  0
    1.0407   -7.7489   21.0811 H   0  0  0  0  0  0  0  0  0  0  0  0
    0.9862  -11.1072   22.9485 H   0  0  0  0  0  0  0  0  0  0  0  0
    4.6352   -7.3824   23.4384 H   0  0  0  0  0  0  0  0  0  0  0  0
    7.4117   -9.5494   30.6447 H   0  0  0  0  0  0  0  0  0  0  0  0
    9.7206  -10.7456   31.1318 H   0  0  0  0  0  0  0  0  0  0  0  0
   11.3154  -10.6004   29.0369 H   0  0  0  0  0  0  0  0  0  0  0  0
    7.3600   -8.5602   25.9901 H   0  0  0  0  0  0  0  0  0  0  0  0
    3.8445   -4.8389   25.1886 H   0  0  0  0  0  0  0  0  0  0  0  0
    4.2646   -5.1467   26.8457 H   0  0  0  0  0  0  0  0  0  0  0  0
    6.0117   -3.6860   25.0363 H   0  0  0  0  0  0  0  0  0  0  0  0
    6.6038   -4.5094   26.4962 H   0  0  0  0  0  0  0  0  0  0  0  0
    6.3561   -5.7388   23.6823 H   0  0  0  0  0  0  0  0  0  0  0  0
    7.4066   -6.2563   24.9783 H   0  0  0  0  0  0  0  0  0  0  0  0
   -3.0480   -7.9638   26.4057 H   0  0  0  0  0  0  0  0  0  0  0  0
   -2.4900   -6.3940   26.5266 H   0  0  0  0  0  0  0  0  0  0  0  0
   -2.9954   -7.1042   28.5802 H   0  0  0  0  0  0  0  0  0  0  0  0
   -0.4962   -4.4193   29.2038 H   0  0  0  0  0  0  0  0  0  0  0  0
    1.1428   -3.2581   31.0708 H   0  0  0  0  0  0  0  0  0  0  0  0
    1.3942   -5.2628   33.8642 H   0  0  0  0  0  0  0  0  0  0  0  0
    2.4547   -4.0933   33.0164 H   0  0  0  0  0  0  0  0  0  0  0  0
    2.8464   -5.8372   32.9801 H   0  0  0  0  0  0  0  0  0  0  0  0
  1  2  1  0
  2  3  2  0
  3  4  1  0
  4  5  1  0
  4  6  2  0
  6  7  1  0
  7  8  1  0
  8  9  1  0
  9 10  1  0
 10 11  1  0
 11 12  1  0
 11 13  1  0
 11 14  1  0
 14 15  2  0
 14 16  1  0
 16 17  1  0
 17 18  1  0
 18 19  2  0
 19 20  1  0
 20 21  2  0
 21 22  1  0
 22 23  2  0
 23 24  1  0
 24 25  2  0
 25 26  1  0
 21 27  1  0
 17 28  1  0
 28 29  1  0
 29 30  1  0
  8 31  1  0
 31 32  1  0
 32 33  1  0
 33 34  2  0
 33 35  2  0
 33 36  1  0
 36 37  1  0
 37 38  2  0
 38 39  1  0
 39 40  1  0
 39 41  1  0
  7 42  2  0
 42  2  1  0
 30 17  1  0
 41 36  2  0
 27 18  1  0
 26 22  1  0
  1 43  1  0
  1 44  1  0
  1 45  1  0
  3 46  1  0
  5 47  1  0
  8 48  1  0
  9 49  1  0
  9 50  1  0
 10 51  1  0
 12 52  1  0
 16 53  1  0
 23 54  1  0
 24 55  1  0
 25 56  1  0
 27 57  1  0
 28 58  1  0
 28 59  1  0
 29 60  1  0
 29 61  1  0
 30 62  1  0
 30 63  1  0
 31 64  1  0
 31 65  1  0
 32 66  1  0
 37 67  1  0
 38 68  1  0
 40 69  1  0
 40 70  1  0
 40 71  1  0
M  END
>  <Energy>  (437) 
1057.8809696283765

>  <compound_id>  (437) 
2611

>  <target_id>  (437) 
1

>  <reference_id>  (437) 
175

>  <inspiration_ids>  (437) 
[175, 165]

>  <energy_score>  (437) 
901.6380953209261

>  <distance_score>  (437) 
5.74520061314438

>  <path>  (437) 
/opt/xchem-fragalysis-2/maxwin/BulkDock/SCRATCH/505736/C2611-P175/C2611-P175.minimised.mol

>  <scratch_subdir>  (437) 
/opt/xchem-fragalysis-2/maxwin/BulkDock/SCRATCH/505736/C2611-P175

>  <fragmenstein_runtime>  (437) 
67.2424955368042

>  <fragmenstein_outcome>  (437) 
too moved

>  <fragmenstein_mode>  (437) 
expansion

>  <fragmenstein_error>  (437) 


$$$$
C2611-P165
     RDKit          3D

 71 75  0  0  0  0  0  0  0  0999 V2000
   -6.0701   -2.6476   24.2662 C   0  0  0  0  0  0  0  0  0  0  0  0
   -4.1275   -2.9958   23.7577 C   0  0  0  0  0  0  0  0  0  0  0  0
   -4.0930   -3.4022   22.2531 C   0  0  0  0  0  0  0  0  0  0  0  0
   -3.6844   -4.6116   22.0140 C   0  0  0  0  0  0  0  0  0  0  0  0
   -4.5441   -5.4278   21.4310 O   0  0  0  0  0  0  0  0  0  0  0  0
   -2.8730   -5.2010   23.4480 N   0  0  0  0  0  0  0  0  0  0  0  0
   -2.6085   -4.2669   24.5838 C   0  0  0  0  0  0  0  0  0  0  0  0
   -1.7793   -5.0943   26.1463 C   0  0  0  0  0  0  0  0  0  0  0  0
   -1.0626   -5.2770   24.7482 C   0  0  0  0  0  0  0  0  0  0  0  0
   -0.2050   -4.6291   23.7979 N   0  0  0  0  0  0  0  0  0  0  0  0
    1.1786   -4.4754   23.7116 C   0  0  0  0  0  0  0  0  0  0  0  0
    1.1372   -4.9528   21.8984 S   0  0  0  0  0  0  0  0  0  0  0  0
    1.7740   -3.1368   22.8935 Cl  0  0  0  0  0  0  0  0  0  0  0  0
    2.5153   -4.7687   25.2827 C   0  0  0  0  0  0  0  0  0  0  0  0
    2.0986   -5.6037   26.0210 O   0  0  0  0  0  0  0  0  0  0  0  0
    3.6660   -3.9425   25.3838 N   0  0  0  0  0  0  0  0  0  0  0  0
    4.7065   -3.8603   26.4191 C   0  0  0  0  0  0  0  0  0  0  0  0
    5.1592   -5.2915   26.9542 C   0  0  0  0  0  0  0  0  0  0  0  0
    4.5323   -5.9443   27.9160 N   0  0  0  0  0  0  0  0  0  0  0  0
    5.3203   -7.0044   28.2929 N   0  0  0  0  0  0  0  0  0  0  0  0
    6.4015   -6.9980   27.5371 C   0  0  0  0  0  0  0  0  0  0  0  0
    7.5315   -7.8596   27.7200 C   0  0  0  0  0  0  0  0  0  0  0  0
    7.8695   -8.5244   28.8847 C   0  0  0  0  0  0  0  0  0  0  0  0
    9.0780   -9.2682   28.7674 C   0  0  0  0  0  0  0  0  0  0  0  0
    9.6064   -9.1835   27.5001 C   0  0  0  0  0  0  0  0  0  0  0  0
    8.6654   -8.1830   26.4783 S   0  0  0  0  0  0  0  0  0  0  0  0
    6.2964   -5.9822   26.6173 N   0  0  0  0  0  0  0  0  0  0  0  0
    4.3005   -2.9260   27.5979 C   0  0  0  0  0  0  0  0  0  0  0  0
    5.7464   -2.4121   27.6186 C   0  0  0  0  0  0  0  0  0  0  0  0
    5.8485   -2.8702   26.1586 C   0  0  0  0  0  0  0  0  0  0  0  0
   -1.0660   -4.0629   27.7236 C   0  0  0  0  0  0  0  0  0  0  0  0
    0.4266   -4.0433   28.1514 N   0  0  0  0  0  0  0  0  0  0  0  0
    0.6721   -3.2570   29.6777 S   0  0  0  0  0  0  0  0  0  0  0  0
    1.9474   -2.5767   29.6145 O   0  0  0  0  0  0  0  0  0  0  0  0
   -0.5361   -2.5628   30.0713 O   0  0  0  0  0  0  0  0  0  0  0  0
    0.9001   -4.4401   30.9671 C   0  0  0  0  0  0  0  0  0  0  0  0
    1.8499   -4.2862   32.0096 C   0  0  0  0  0  0  0  0  0  0  0  0
    1.6141   -5.3358   32.8650 C   0  0  0  0  0  0  0  0  0  0  0  0
    0.5615   -6.0212   32.3332 N   0  0  0  0  0  0  0  0  0  0  0  0
   -0.1634   -7.1057   32.9527 C   0  0  0  0  0  0  0  0  0  0  0  0
    0.1565   -5.5557   31.1309 N   0  0  0  0  0  0  0  0  0  0  0  0
   -3.0738   -3.0188   24.6027 N   0  0  0  0  0  0  0  0  0  0  0  0
   -6.8803   -3.4428   24.2941 H   0  0  0  0  0  0  0  0  0  0  0  0
   -6.6148   -2.7778   23.3438 H   0  0  0  0  0  0  0  0  0  0  0  0
   -6.4295   -1.8076   24.9214 H   0  0  0  0  0  0  0  0  0  0  0  0
   -3.3134   -2.6793   21.9317 H   0  0  0  0  0  0  0  0  0  0  0  0
   -4.3868   -6.1976   22.0151 H   0  0  0  0  0  0  0  0  0  0  0  0
   -0.7414   -4.7842   26.3817 H   0  0  0  0  0  0  0  0  0  0  0  0
   -0.0828   -5.2979   25.1635 H   0  0  0  0  0  0  0  0  0  0  0  0
   -1.5875   -6.2138   24.4156 H   0  0  0  0  0  0  0  0  0  0  0  0
   -0.5290   -3.6658   23.6957 H   0  0  0  0  0  0  0  0  0  0  0  0
    0.9561   -3.7407   21.3513 H   0  0  0  0  0  0  0  0  0  0  0  0
    3.6669   -3.2868   24.6134 H   0  0  0  0  0  0  0  0  0  0  0  0
    7.2862   -8.4614   29.7935 H   0  0  0  0  0  0  0  0  0  0  0  0
    9.5257   -9.8492   29.5661 H   0  0  0  0  0  0  0  0  0  0  0  0
   10.5029   -9.6588   27.1260 H   0  0  0  0  0  0  0  0  0  0  0  0
    6.9984   -5.7142   25.9390 H   0  0  0  0  0  0  0  0  0  0  0  0
    3.5681   -2.1521   27.3403 H   0  0  0  0  0  0  0  0  0  0  0  0
    3.9886   -3.4161   28.5223 H   0  0  0  0  0  0  0  0  0  0  0  0
    5.8670   -1.3394   27.7893 H   0  0  0  0  0  0  0  0  0  0  0  0
    6.4041   -2.9571   28.3053 H   0  0  0  0  0  0  0  0  0  0  0  0
    5.5823   -2.0724   25.4567 H   0  0  0  0  0  0  0  0  0  0  0  0
    6.8176   -3.3000   25.9052 H   0  0  0  0  0  0  0  0  0  0  0  0
   -1.3475   -2.9917   27.6730 H   0  0  0  0  0  0  0  0  0  0  0  0
   -1.4604   -4.5732   28.6074 H   0  0  0  0  0  0  0  0  0  0  0  0
    0.8240   -4.9859   28.1771 H   0  0  0  0  0  0  0  0  0  0  0  0
    2.5730   -3.4898   32.1269 H   0  0  0  0  0  0  0  0  0  0  0  0
    2.0615   -5.6072   33.8112 H   0  0  0  0  0  0  0  0  0  0  0  0
   -1.1343   -6.7234   33.2775 H   0  0  0  0  0  0  0  0  0  0  0  0
    0.4021   -7.4738   33.8116 H   0  0  0  0  0  0  0  0  0  0  0  0
   -0.2946   -7.9021   32.2167 H   0  0  0  0  0  0  0  0  0  0  0  0
  1  2  1  0
  2  3  2  0
  3  4  1  0
  4  5  1  0
  4  6  2  0
  6  7  1  0
  7  8  1  0
  8  9  1  0
  9 10  1  0
 10 11  1  0
 11 12  1  0
 11 13  1  0
 11 14  1  0
 14 15  2  0
 14 16  1  0
 16 17  1  0
 17 18  1  0
 18 19  2  0
 19 20  1  0
 20 21  2  0
 21 22  1  0
 22 23  2  0
 23 24  1  0
 24 25  2  0
 25 26  1  0
 21 27  1  0
 17 28  1  0
 28 29  1  0
 29 30  1  0
  8 31  1  0
 31 32  1  0
 32 33  1  0
 33 34  2  0
 33 35  2  0
 33 36  1  0
 36 37  1  0
 37 38  2  0
 38 39  1  0
 39 40  1  0
 39 41  1  0
  7 42  2  0
 42  2  1  0
 30 17  1  0
 41 36  2  0
 27 18  1  0
 26 22  1  0
  1 43  1  0
  1 44  1  0
  1 45  1  0
  3 46  1  0
  5 47  1  0
  8 48  1  0
  9 49  1  0
  9 50  1  0
 10 51  1  0
 12 52  1  0
 16 53  1  0
 23 54  1  0
 24 55  1  0
 25 56  1  0
 27 57  1  0
 28 58  1  0
 28 59  1  0
 29 60  1  0
 29 61  1  0
 30 62  1  0
 30 63  1  0
 31 64  1  0
 31 65  1  0
 32 66  1  0
 37 67  1  0
 38 68  1  0
 40 69  1  0
 40 70  1  0
 40 71  1  0
M  END
>  <Energy>  (438) 
804.39997497427225

>  <compound_id>  (438) 
2611

>  <target_id>  (438) 
1

>  <reference_id>  (438) 
165

>  <inspiration_ids>  (438) 
[175, 165]

>  <energy_score>  (438) 
648.1571006668378

>  <distance_score>  (438) 
5.86029398717507

>  <path>  (438) 
/opt/xchem-fragalysis-2/maxwin/BulkDock/SCRATCH/505736/C2611-P165/C2611-P165.minimised.mol

>  <scratch_subdir>  (438) 
/opt/xchem-fragalysis-2/maxwin/BulkDock/SCRATCH/505736/C2611-P165

>  <fragmenstein_runtime>  (438) 
78.33801102638245

>  <fragmenstein_outcome>  (438) 
too moved

>  <fragmenstein_mode>  (438) 
expansion

>  <fragmenstein_error>  (438) 


$$$$
C2612-P175
     RDKit          3D

 68 72  0  0  0  0  0  0  0  0999 V2000
    0.2169   -7.1913   35.3927 C   0  0  0  0  0  0  0  0  0  0  0  0
    1.1163   -6.3297   34.4180 C   0  0  0  0  0  0  0  0  0  0  0  0
    2.7581   -6.5266   34.8394 C   0  0  0  0  0  0  0  0  0  0  0  0
    3.8307   -5.6940   33.8615 C   0  0  0  0  0  0  0  0  0  0  0  0
    5.1545   -5.7615   34.2316 O   0  0  0  0  0  0  0  0  0  0  0  0
    3.5643   -4.7051   32.5449 N   0  0  0  0  0  0  0  0  0  0  0  0
    2.0795   -4.4347   32.0203 C   0  0  0  0  0  0  0  0  0  0  0  0
    1.8063   -4.0185   30.5648 C   0  0  0  0  0  0  0  0  0  0  0  0
    0.2791   -4.1556   30.3188 C   0  0  0  0  0  0  0  0  0  0  0  0
   -0.3209   -5.4860   30.0010 N   0  0  0  0  0  0  0  0  0  0  0  0
   -0.1111   -6.9604   30.8062 S   0  0  0  0  0  0  0  0  0  0  0  0
    0.9468   -7.6245   30.0769 O   0  0  0  0  0  0  0  0  0  0  0  0
   -1.4154   -7.5937   30.8780 O   0  0  0  0  0  0  0  0  0  0  0  0
    0.3962   -6.8128   32.5227 C   0  0  0  0  0  0  0  0  0  0  0  0
   -0.8599   -5.8264   33.5804 C   0  0  0  0  0  0  0  0  0  0  0  0
   -0.0931   -4.6187   34.5200 C   0  0  0  0  0  0  0  0  0  0  0  0
    1.7303   -4.6565   34.1651 N   0  0  0  0  0  0  0  0  0  0  0  0
    2.4944   -3.5060   34.6890 C   0  0  0  0  0  0  0  0  0  0  0  0
    2.0029   -6.2170   32.8895 N   0  0  0  0  0  0  0  0  0  0  0  0
    2.6409   -4.6930   29.4960 N   0  0  0  0  0  0  0  0  0  0  0  0
    3.1568   -3.8208   28.3893 C   0  0  0  0  0  0  0  0  0  0  0  0
    2.6972   -2.0740   28.3447 S   0  0  0  0  0  0  0  0  0  0  0  0
    2.5461   -4.4931   26.7509 Cl  0  0  0  0  0  0  0  0  0  0  0  0
    4.7389   -4.0272   28.2260 C   0  0  0  0  0  0  0  0  0  0  0  0
    5.5039   -3.1109   28.3440 O   0  0  0  0  0  0  0  0  0  0  0  0
    4.9692   -5.4130   27.8410 N   0  0  0  0  0  0  0  0  0  0  0  0
    6.1801   -6.0917   27.3873 C   0  0  0  0  0  0  0  0  0  0  0  0
    6.9025   -6.7749   28.5739 C   0  0  0  0  0  0  0  0  0  0  0  0
    6.9518   -6.2851   29.7930 N   0  0  0  0  0  0  0  0  0  0  0  0
    7.6785   -7.1586   30.5677 N   0  0  0  0  0  0  0  0  0  0  0  0
    8.0253   -8.1786   29.8131 C   0  0  0  0  0  0  0  0  0  0  0  0
    8.7178   -9.3461   30.2512 C   0  0  0  0  0  0  0  0  0  0  0  0
    9.1903   -9.5943   31.5242 C   0  0  0  0  0  0  0  0  0  0  0  0
    9.8130  -10.8714   31.6352 C   0  0  0  0  0  0  0  0  0  0  0  0
    9.7955  -11.5573   30.4418 C   0  0  0  0  0  0  0  0  0  0  0  0
    9.0401  -10.6573   29.2011 S   0  0  0  0  0  0  0  0  0  0  0  0
    7.5833   -7.9561   28.5406 N   0  0  0  0  0  0  0  0  0  0  0  0
    7.1039   -5.2828   26.4447 C   0  0  0  0  0  0  0  0  0  0  0  0
    6.2802   -5.8230   25.2593 C   0  0  0  0  0  0  0  0  0  0  0  0
    5.8889   -7.0117   26.1553 C   0  0  0  0  0  0  0  0  0  0  0  0
    0.7506   -5.0665   32.8706 N   0  0  0  0  0  0  0  0  0  0  0  0
   -0.3718   -6.5706   36.0751 H   0  0  0  0  0  0  0  0  0  0  0  0
   -0.4200   -7.8961   34.8512 H   0  0  0  0  0  0  0  0  0  0  0  0
    0.8726   -7.7992   36.0244 H   0  0  0  0  0  0  0  0  0  0  0  0
    3.0730   -7.1384   35.6703 H   0  0  0  0  0  0  0  0  0  0  0  0
    5.2615   -6.5641   34.7617 H   0  0  0  0  0  0  0  0  0  0  0  0
    2.0483   -2.9557   30.6298 H   0  0  0  0  0  0  0  0  0  0  0  0
   -0.3031   -3.7064   31.1324 H   0  0  0  0  0  0  0  0  0  0  0  0
    0.0444   -3.5351   29.4421 H   0  0  0  0  0  0  0  0  0  0  0  0
   -0.2832   -5.6644   28.9926 H   0  0  0  0  0  0  0  0  0  0  0  0
   -1.8808   -5.7906   33.2546 H   0  0  0  0  0  0  0  0  0  0  0  0
   -0.3764   -3.6893   34.9922 H   0  0  0  0  0  0  0  0  0  0  0  0
    1.7882   -2.8987   35.2622 H   0  0  0  0  0  0  0  0  0  0  0  0
    3.2649   -3.8472   35.3811 H   0  0  0  0  0  0  0  0  0  0  0  0
    2.8866   -2.8834   33.8856 H   0  0  0  0  0  0  0  0  0  0  0  0
    3.4734   -5.0007   30.0205 H   0  0  0  0  0  0  0  0  0  0  0  0
    3.7542   -1.6823   27.6139 H   0  0  0  0  0  0  0  0  0  0  0  0
    4.0990   -5.9301   27.9275 H   0  0  0  0  0  0  0  0  0  0  0  0
    9.0862   -8.8891   32.3413 H   0  0  0  0  0  0  0  0  0  0  0  0
   10.2463  -11.2678   32.5455 H   0  0  0  0  0  0  0  0  0  0  0  0
   10.1873  -12.5457   30.2408 H   0  0  0  0  0  0  0  0  0  0  0  0
    7.7265   -8.5680   27.7521 H   0  0  0  0  0  0  0  0  0  0  0  0
    8.1479   -5.6214   26.4349 H   0  0  0  0  0  0  0  0  0  0  0  0
    7.1027   -4.1951   26.5511 H   0  0  0  0  0  0  0  0  0  0  0  0
    6.8411   -6.0736   24.3563 H   0  0  0  0  0  0  0  0  0  0  0  0
    5.4383   -5.1772   24.9932 H   0  0  0  0  0  0  0  0  0  0  0  0
    6.5547   -7.8721   26.0249 H   0  0  0  0  0  0  0  0  0  0  0  0
    4.8580   -7.3605   26.0370 H   0  0  0  0  0  0  0  0  0  0  0  0
  1  2  1  0
  2  3  2  0
  3  4  1  0
  4  5  1  0
  4  6  2  0
  6  7  1  0
  7  8  1  0
  8  9  1  0
  9 10  1  0
 10 11  1  0
 11 12  2  0
 11 13  2  0
 11 14  1  0
 14 15  1  0
 15 16  2  0
 16 17  1  0
 17 18  1  0
 17 19  1  0
  8 20  1  0
 20 21  1  0
 21 22  1  0
 21 23  1  0
 21 24  1  0
 24 25  2  0
 24 26  1  0
 26 27  1  0
 27 28  1  0
 28 29  2  0
 29 30  1  0
 30 31  2  0
 31 32  1  0
 32 33  2  0
 33 34  1  0
 34 35  2  0
 35 36  1  0
 31 37  1  0
 27 38  1  0
 38 39  1  0
 39 40  1  0
  7 41  2  0
 41  2  1  0
 19 14  2  0
 40 27  1  0
 37 28  1  0
 36 32  1  0
  1 42  1  0
  1 43  1  0
  1 44  1  0
  3 45  1  0
  5 46  1  0
  8 47  1  0
  9 48  1  0
  9 49  1  0
 10 50  1  0
 15 51  1  0
 16 52  1  0
 18 53  1  0
 18 54  1  0
 18 55  1  0
 20 56  1  0
 22 57  1  0
 26 58  1  0
 33 59  1  0
 34 60  1  0
 35 61  1  0
 37 62  1  0
 38 63  1  0
 38 64  1  0
 39 65  1  0
 39 66  1  0
 40 67  1  0
 40 68  1  0
M  END
>  <Energy>  (439) 
1617.053543549604

>  <compound_id>  (439) 
2612

>  <target_id>  (439) 
1

>  <reference_id>  (439) 
175

>  <inspiration_ids>  (439) 
[175, 166]

>  <energy_score>  (439) 
1402.169862417575

>  <distance_score>  (439) 
5.200743727044235

>  <path>  (439) 
/opt/xchem-fragalysis-2/maxwin/BulkDock/SCRATCH/505736/C2612-P175/C2612-P175.minimised.mol

>  <scratch_subdir>  (439) 
/opt/xchem-fragalysis-2/maxwin/BulkDock/SCRATCH/505736/C2612-P175

>  <fragmenstein_runtime>  (439) 
12.147502422332764

>  <fragmenstein_outcome>  (439) 
too moved

>  <fragmenstein_mode>  (439) 
expansion

>  <fragmenstein_error>  (439) 


$$$$
C2612-P166
     RDKit          3D

 68 72  0  0  0  0  0  0  0  0999 V2000
    2.7202   -2.7797   36.1081 C   0  0  0  0  0  0  0  0  0  0  0  0
    2.6978   -3.9047   35.1171 C   0  0  0  0  0  0  0  0  0  0  0  0
    2.8139   -5.1961   35.5843 C   0  0  0  0  0  0  0  0  0  0  0  0
    2.7889   -6.1507   34.6166 C   0  0  0  0  0  0  0  0  0  0  0  0
    2.7296   -7.4791   34.9246 O   0  0  0  0  0  0  0  0  0  0  0  0
    2.7040   -5.8908   33.3032 N   0  0  0  0  0  0  0  0  0  0  0  0
    2.5120   -4.6122   32.9190 C   0  0  0  0  0  0  0  0  0  0  0  0
    1.9696   -4.3804   31.4634 C   0  0  0  0  0  0  0  0  0  0  0  0
    0.9585   -5.5304   31.0342 C   0  0  0  0  0  0  0  0  0  0  0  0
    0.7917   -6.6803   31.9235 N   0  0  0  0  0  0  0  0  0  0  0  0
   -0.5920   -6.8825   32.8225 S   0  0  0  0  0  0  0  0  0  0  0  0
   -0.3602   -8.0087   33.6899 O   0  0  0  0  0  0  0  0  0  0  0  0
   -1.7000   -6.8272   31.9012 O   0  0  0  0  0  0  0  0  0  0  0  0
   -0.7733   -5.5167   33.9069 C   0  0  0  0  0  0  0  0  0  0  0  0
   -0.9784   -4.1867   33.4739 C   0  0  0  0  0  0  0  0  0  0  0  0
   -0.9703   -3.4338   34.6243 C   0  0  0  0  0  0  0  0  0  0  0  0
   -0.8252   -4.3153   35.6521 N   0  0  0  0  0  0  0  0  0  0  0  0
   -0.8206   -4.0094   37.0621 C   0  0  0  0  0  0  0  0  0  0  0  0
   -0.6474   -5.5861   35.2494 N   0  0  0  0  0  0  0  0  0  0  0  0
    2.9820   -3.8667   30.4353 N   0  0  0  0  0  0  0  0  0  0  0  0
    2.6552   -4.0190   28.9899 C   0  0  0  0  0  0  0  0  0  0  0  0
    0.9185   -3.7583   28.5657 S   0  0  0  0  0  0  0  0  0  0  0  0
    3.4675   -2.6837   27.9619 Cl  0  0  0  0  0  0  0  0  0  0  0  0
    3.3124   -5.3932   28.4349 C   0  0  0  0  0  0  0  0  0  0  0  0
    2.6592   -6.3928   28.3071 O   0  0  0  0  0  0  0  0  0  0  0  0
    4.7377   -5.1638   28.2560 N   0  0  0  0  0  0  0  0  0  0  0  0
    5.7973   -6.0465   27.7756 C   0  0  0  0  0  0  0  0  0  0  0  0
    6.6555   -6.5542   28.9571 C   0  0  0  0  0  0  0  0  0  0  0  0
    6.6248   -6.0568   30.1742 N   0  0  0  0  0  0  0  0  0  0  0  0
    7.6358   -6.6580   30.8911 N   0  0  0  0  0  0  0  0  0  0  0  0
    8.2661   -7.4899   30.0874 C   0  0  0  0  0  0  0  0  0  0  0  0
    9.4091   -8.2813   30.4114 C   0  0  0  0  0  0  0  0  0  0  0  0
    9.9775   -8.4372   31.6595 C   0  0  0  0  0  0  0  0  0  0  0  0
   11.0641   -9.3596   31.6516 C   0  0  0  0  0  0  0  0  0  0  0  0
   11.3056   -9.8616   30.3928 C   0  0  0  0  0  0  0  0  0  0  0  0
   10.2339   -9.2143   29.2301 S   0  0  0  0  0  0  0  0  0  0  0  0
    7.6404   -7.4923   28.8752 N   0  0  0  0  0  0  0  0  0  0  0  0
    6.6675   -5.3730   26.6723 C   0  0  0  0  0  0  0  0  0  0  0  0
    5.7466   -6.0386   25.6455 C   0  0  0  0  0  0  0  0  0  0  0  0
    5.4047   -7.0936   26.7041 C   0  0  0  0  0  0  0  0  0  0  0  0
    2.5200   -3.5945   33.8012 N   0  0  0  0  0  0  0  0  0  0  0  0
    2.5446   -1.8218   35.6078 H   0  0  0  0  0  0  0  0  0  0  0  0
    1.9432   -2.9126   36.8656 H   0  0  0  0  0  0  0  0  0  0  0  0
    3.6962   -2.7321   36.6012 H   0  0  0  0  0  0  0  0  0  0  0  0
    2.8975   -5.4305   36.6351 H   0  0  0  0  0  0  0  0  0  0  0  0
    2.1951   -7.5538   35.7375 H   0  0  0  0  0  0  0  0  0  0  0  0
    1.3208   -3.5019   31.5932 H   0  0  0  0  0  0  0  0  0  0  0  0
    1.2926   -5.9969   30.1122 H   0  0  0  0  0  0  0  0  0  0  0  0
   -0.0211   -5.0979   30.8061 H   0  0  0  0  0  0  0  0  0  0  0  0
    1.6164   -6.9007   32.4958 H   0  0  0  0  0  0  0  0  0  0  0  0
   -1.1178   -3.8179   32.4690 H   0  0  0  0  0  0  0  0  0  0  0  0
   -1.0986   -2.3730   34.7898 H   0  0  0  0  0  0  0  0  0  0  0  0
   -0.8401   -2.9257   37.1997 H   0  0  0  0  0  0  0  0  0  0  0  0
   -1.7035   -4.4615   37.5160 H   0  0  0  0  0  0  0  0  0  0  0  0
    0.0870   -4.4259   37.5057 H   0  0  0  0  0  0  0  0  0  0  0  0
    3.8749   -4.3278   30.6243 H   0  0  0  0  0  0  0  0  0  0  0  0
    1.0102   -2.4248   28.4511 H   0  0  0  0  0  0  0  0  0  0  0  0
    4.9581   -4.2071   28.5324 H   0  0  0  0  0  0  0  0  0  0  0  0
    9.6109   -7.9284   32.5445 H   0  0  0  0  0  0  0  0  0  0  0  0
   11.6394   -9.6384   32.5264 H   0  0  0  0  0  0  0  0  0  0  0  0
   12.0659  -10.5726   30.0985 H   0  0  0  0  0  0  0  0  0  0  0  0
    7.9190   -8.0249   28.0644 H   0  0  0  0  0  0  0  0  0  0  0  0
    6.6746   -4.2788   26.6504 H   0  0  0  0  0  0  0  0  0  0  0  0
    7.7044   -5.7256   26.6159 H   0  0  0  0  0  0  0  0  0  0  0  0
    4.8892   -5.4093   25.4008 H   0  0  0  0  0  0  0  0  0  0  0  0
    6.2314   -6.4108   24.7418 H   0  0  0  0  0  0  0  0  0  0  0  0
    4.3684   -7.4384   26.6853 H   0  0  0  0  0  0  0  0  0  0  0  0
    6.0574   -7.9719   26.6434 H   0  0  0  0  0  0  0  0  0  0  0  0
  1  2  1  0
  2  3  2  0
  3  4  1  0
  4  5  1  0
  4  6  2  0
  6  7  1  0
  7  8  1  0
  8  9  1  0
  9 10  1  0
 10 11  1  0
 11 12  2  0
 11 13  2  0
 11 14  1  0
 14 15  1  0
 15 16  2  0
 16 17  1  0
 17 18  1  0
 17 19  1  0
  8 20  1  0
 20 21  1  0
 21 22  1  0
 21 23  1  0
 21 24  1  0
 24 25  2  0
 24 26  1  0
 26 27  1  0
 27 28  1  0
 28 29  2  0
 29 30  1  0
 30 31  2  0
 31 32  1  0
 32 33  2  0
 33 34  1  0
 34 35  2  0
 35 36  1  0
 31 37  1  0
 27 38  1  0
 38 39  1  0
 39 40  1  0
  7 41  2  0
 41  2  1  0
 19 14  2  0
 40 27  1  0
 37 28  1  0
 36 32  1  0
  1 42  1  0
  1 43  1  0
  1 44  1  0
  3 45  1  0
  5 46  1  0
  8 47  1  0
  9 48  1  0
  9 49  1  0
 10 50  1  0
 15 51  1  0
 16 52  1  0
 18 53  1  0
 18 54  1  0
 18 55  1  0
 20 56  1  0
 22 57  1  0
 26 58  1  0
 33 59  1  0
 34 60  1  0
 35 61  1  0
 37 62  1  0
 38 63  1  0
 38 64  1  0
 39 65  1  0
 39 66  1  0
 40 67  1  0
 40 68  1  0
M  END
>  <Energy>  (440) 
115.55385340464919

>  <compound_id>  (440) 
2612

>  <target_id>  (440) 
1

>  <reference_id>  (440) 
166

>  <inspiration_ids>  (440) 
[175, 166]

>  <energy_score>  (440) 
-99.32982772736756

>  <distance_score>  (440) 
5.45979404483852

>  <path>  (440) 
/opt/xchem-fragalysis-2/maxwin/BulkDock/SCRATCH/505736/C2612-P166/C2612-P166.minimised.mol

>  <scratch_subdir>  (440) 
/opt/xchem-fragalysis-2/maxwin/BulkDock/SCRATCH/505736/C2612-P166

>  <fragmenstein_runtime>  (440) 
19.184268712997437

>  <fragmenstein_outcome>  (440) 
too moved

>  <fragmenstein_mode>  (440) 
expansion

>  <fragmenstein_error>  (440) 


$$$$
C2613-P175
     RDKit          3D

 67 71  0  0  0  0  0  0  0  0999 V2000
   -0.5173   -6.7578   36.0454 C   0  0  0  0  0  0  0  0  0  0  0  0
    0.6273   -6.5608   35.0787 C   0  0  0  0  0  0  0  0  0  0  0  0
    1.8283   -7.0676   35.4765 C   0  0  0  0  0  0  0  0  0  0  0  0
    2.8370   -6.8028   34.6099 C   0  0  0  0  0  0  0  0  0  0  0  0
    4.0734   -7.2521   34.9698 O   0  0  0  0  0  0  0  0  0  0  0  0
    2.7600   -6.1558   33.4169 N   0  0  0  0  0  0  0  0  0  0  0  0
    1.5476   -5.6977   33.0459 C   0  0  0  0  0  0  0  0  0  0  0  0
    1.4544   -4.7587   31.7071 C   0  0  0  0  0  0  0  0  0  0  0  0
    2.1227   -5.2567   30.2641 C   0  0  0  0  0  0  0  0  0  0  0  0
    2.0829   -4.4770   28.8649 N   0  0  0  0  0  0  0  0  0  0  0  0
    2.9468   -5.0747   27.7602 C   0  0  0  0  0  0  0  0  0  0  0  0
    2.7806   -6.9992   27.8023 S   0  0  0  0  0  0  0  0  0  0  0  0
    2.7276   -4.5364   25.7288 Cl  0  0  0  0  0  0  0  0  0  0  0  0
    4.4886   -4.8558   27.8689 C   0  0  0  0  0  0  0  0  0  0  0  0
    5.0891   -4.1444   28.5779 O   0  0  0  0  0  0  0  0  0  0  0  0
    4.9949   -5.9305   26.8373 N   0  0  0  0  0  0  0  0  0  0  0  0
    6.3031   -6.3898   26.5590 C   0  0  0  0  0  0  0  0  0  0  0  0
    6.8945   -6.9696   27.8548 C   0  0  0  0  0  0  0  0  0  0  0  0
    6.5237   -6.5873   29.0577 N   0  0  0  0  0  0  0  0  0  0  0  0
    7.1669   -7.3729   29.9631 N   0  0  0  0  0  0  0  0  0  0  0  0
    7.8440   -8.2772   29.2962 C   0  0  0  0  0  0  0  0  0  0  0  0
    8.5367   -9.3716   29.8732 C   0  0  0  0  0  0  0  0  0  0  0  0
    8.8321   -9.5460   31.2078 C   0  0  0  0  0  0  0  0  0  0  0  0
    9.5234  -10.7667   31.4488 C   0  0  0  0  0  0  0  0  0  0  0  0
    9.7184  -11.4854   30.2909 C   0  0  0  0  0  0  0  0  0  0  0  0
    9.0714  -10.6844   28.9300 S   0  0  0  0  0  0  0  0  0  0  0  0
    7.7475   -8.0207   27.9610 N   0  0  0  0  0  0  0  0  0  0  0  0
    7.1478   -5.4904   25.7065 C   0  0  0  0  0  0  0  0  0  0  0  0
    7.3343   -6.6562   24.7217 C   0  0  0  0  0  0  0  0  0  0  0  0
    6.1997   -7.4046   25.3863 C   0  0  0  0  0  0  0  0  0  0  0  0
   -0.0133   -4.3501   31.4832 C   0  0  0  0  0  0  0  0  0  0  0  0
   -0.3675   -3.2496   32.4142 N   0  0  0  0  0  0  0  0  0  0  0  0
   -1.7187   -2.3131   32.0239 S   0  0  0  0  0  0  0  0  0  0  0  0
   -2.8115   -3.2130   31.7336 O   0  0  0  0  0  0  0  0  0  0  0  0
   -1.8267   -1.2691   33.0194 O   0  0  0  0  0  0  0  0  0  0  0  0
   -1.4803   -1.4547   30.5186 C   0  0  0  0  0  0  0  0  0  0  0  0
   -2.3170   -0.4313   30.1152 C   0  0  0  0  0  0  0  0  0  0  0  0
   -1.8500    0.1248   28.5632 S   0  0  0  0  0  0  0  0  0  0  0  0
   -0.5863   -1.0359   28.5445 C   0  0  0  0  0  0  0  0  0  0  0  0
   -0.4686   -1.7908   29.6156 N   0  0  0  0  0  0  0  0  0  0  0  0
    0.4648   -5.8795   33.8808 N   0  0  0  0  0  0  0  0  0  0  0  0
   -0.2966   -6.2834   37.0066 H   0  0  0  0  0  0  0  0  0  0  0  0
   -0.7059   -7.8252   36.1947 H   0  0  0  0  0  0  0  0  0  0  0  0
   -1.4256   -6.3030   35.6388 H   0  0  0  0  0  0  0  0  0  0  0  0
    1.9784   -7.5932   36.4082 H   0  0  0  0  0  0  0  0  0  0  0  0
    4.6495   -6.6909   34.4176 H   0  0  0  0  0  0  0  0  0  0  0  0
    2.0328   -3.8636   31.9782 H   0  0  0  0  0  0  0  0  0  0  0  0
    3.1834   -5.4202   30.4758 H   0  0  0  0  0  0  0  0  0  0  0  0
    1.6436   -6.2239   30.0880 H   0  0  0  0  0  0  0  0  0  0  0  0
    1.1154   -4.4876   28.5387 H   0  0  0  0  0  0  0  0  0  0  0  0
    3.9219   -7.0933   28.5177 H   0  0  0  0  0  0  0  0  0  0  0  0
    4.2002   -6.4289   26.4467 H   0  0  0  0  0  0  0  0  0  0  0  0
    8.5646   -8.8294   31.9764 H   0  0  0  0  0  0  0  0  0  0  0  0
    9.8528  -11.1053   32.4239 H   0  0  0  0  0  0  0  0  0  0  0  0
   10.2023  -12.4474   30.1844 H   0  0  0  0  0  0  0  0  0  0  0  0
    8.1705   -8.5558   27.2177 H   0  0  0  0  0  0  0  0  0  0  0  0
    8.0606   -5.1365   26.1947 H   0  0  0  0  0  0  0  0  0  0  0  0
    6.6070   -4.6348   25.2849 H   0  0  0  0  0  0  0  0  0  0  0  0
    7.1355   -6.4045   23.6806 H   0  0  0  0  0  0  0  0  0  0  0  0
    8.2848   -7.1846   24.8363 H   0  0  0  0  0  0  0  0  0  0  0  0
    6.4029   -8.4566   25.6081 H   0  0  0  0  0  0  0  0  0  0  0  0
    5.2703   -7.3643   24.8031 H   0  0  0  0  0  0  0  0  0  0  0  0
   -0.6927   -5.1961   31.6351 H   0  0  0  0  0  0  0  0  0  0  0  0
   -0.1425   -4.0147   30.4544 H   0  0  0  0  0  0  0  0  0  0  0  0
   -0.4825   -3.5893   33.3758 H   0  0  0  0  0  0  0  0  0  0  0  0
   -3.1620   -0.0112   30.6423 H   0  0  0  0  0  0  0  0  0  0  0  0
    0.0739   -1.1288   27.6922 H   0  0  0  0  0  0  0  0  0  0  0  0
  1  2  1  0
  2  3  2  0
  3  4  1  0
  4  5  1  0
  4  6  2  0
  6  7  1  0
  7  8  1  0
  8  9  1  0
  9 10  1  0
 10 11  1  0
 11 12  1  0
 11 13  1  0
 11 14  1  0
 14 15  2  0
 14 16  1  0
 16 17  1  0
 17 18  1  0
 18 19  2  0
 19 20  1  0
 20 21  2  0
 21 22  1  0
 22 23  2  0
 23 24  1  0
 24 25  2  0
 25 26  1  0
 21 27  1  0
 17 28  1  0
 28 29  1  0
 29 30  1  0
  8 31  1  0
 31 32  1  0
 32 33  1  0
 33 34  2  0
 33 35  2  0
 33 36  1  0
 36 37  2  0
 37 38  1  0
 38 39  1  0
 39 40  2  0
  7 41  2  0
 41  2  1  0
 30 17  1  0
 40 36  1  0
 27 18  1  0
 26 22  1  0
  1 42  1  0
  1 43  1  0
  1 44  1  0
  3 45  1  0
  5 46  1  0
  8 47  1  0
  9 48  1  0
  9 49  1  0
 10 50  1  0
 12 51  1  0
 16 52  1  0
 23 53  1  0
 24 54  1  0
 25 55  1  0
 27 56  1  0
 28 57  1  0
 28 58  1  0
 29 59  1  0
 29 60  1  0
 30 61  1  0
 30 62  1  0
 31 63  1  0
 31 64  1  0
 32 65  1  0
 37 66  1  0
 39 67  1  0
M  END
>  <Energy>  (441) 
104.28489037820856

>  <compound_id>  (441) 
2613

>  <target_id>  (441) 
1

>  <reference_id>  (441) 
175

>  <inspiration_ids>  (441) 
[175, 167]

>  <energy_score>  (441) 
-23.56996327559841

>  <distance_score>  (441) 
5.283789050407607

>  <path>  (441) 
/opt/xchem-fragalysis-2/maxwin/BulkDock/SCRATCH/505736/C2613-P175/C2613-P175.minimised.mol

>  <scratch_subdir>  (441) 
/opt/xchem-fragalysis-2/maxwin/BulkDock/SCRATCH/505736/C2613-P175

>  <fragmenstein_runtime>  (441) 
16.28522229194641

>  <fragmenstein_outcome>  (441) 
too moved

>  <fragmenstein_mode>  (441) 
expansion

>  <fragmenstein_error>  (441) 


$$$$
C2613-P167
     RDKit          3D

 67 71  0  0  0  0  0  0  0  0999 V2000
   -0.1088   -5.3294   37.0856 C   0  0  0  0  0  0  0  0  0  0  0  0
    0.6301   -5.8254   35.8810 C   0  0  0  0  0  0  0  0  0  0  0  0
    1.2080   -7.0677   35.9139 C   0  0  0  0  0  0  0  0  0  0  0  0
    2.0254   -7.3288   34.8560 C   0  0  0  0  0  0  0  0  0  0  0  0
    2.8395   -8.4203   34.9143 O   0  0  0  0  0  0  0  0  0  0  0  0
    2.2607   -6.5278   33.8054 N   0  0  0  0  0  0  0  0  0  0  0  0
    1.6585   -5.3288   33.8544 C   0  0  0  0  0  0  0  0  0  0  0  0
    2.0983   -4.2398   32.8793 C   0  0  0  0  0  0  0  0  0  0  0  0
    1.4085   -4.2524   31.4730 C   0  0  0  0  0  0  0  0  0  0  0  0
    2.1396   -4.8511   30.3193 N   0  0  0  0  0  0  0  0  0  0  0  0
    2.1724   -4.0295   29.0713 C   0  0  0  0  0  0  0  0  0  0  0  0
    3.0551   -2.4612   29.2657 S   0  0  0  0  0  0  0  0  0  0  0  0
    0.5241   -3.6999   28.4700 Cl  0  0  0  0  0  0  0  0  0  0  0  0
    2.9484   -4.8541   27.9104 C   0  0  0  0  0  0  0  0  0  0  0  0
    2.4259   -5.0165   26.8416 O   0  0  0  0  0  0  0  0  0  0  0  0
    4.2564   -5.2413   28.3873 N   0  0  0  0  0  0  0  0  0  0  0  0
    5.3849   -5.8624   27.6949 C   0  0  0  0  0  0  0  0  0  0  0  0
    6.3955   -6.4291   28.7439 C   0  0  0  0  0  0  0  0  0  0  0  0
    6.4289   -6.0754   30.0106 N   0  0  0  0  0  0  0  0  0  0  0  0
    7.5084   -6.7079   30.5891 N   0  0  0  0  0  0  0  0  0  0  0  0
    8.1012   -7.4341   29.6640 C   0  0  0  0  0  0  0  0  0  0  0  0
    9.2852   -8.2167   29.8235 C   0  0  0  0  0  0  0  0  0  0  0  0
   10.0775   -8.2983   30.9512 C   0  0  0  0  0  0  0  0  0  0  0  0
   11.1507   -9.2239   30.8012 C   0  0  0  0  0  0  0  0  0  0  0  0
   11.1614   -9.8002   29.5514 C   0  0  0  0  0  0  0  0  0  0  0  0
    9.8931   -9.2151   28.5667 S   0  0  0  0  0  0  0  0  0  0  0  0
    7.3976   -7.3218   28.5011 N   0  0  0  0  0  0  0  0  0  0  0  0
    6.0448   -4.9411   26.6302 C   0  0  0  0  0  0  0  0  0  0  0  0
    6.2088   -6.1863   25.7349 C   0  0  0  0  0  0  0  0  0  0  0  0
    5.0517   -6.8290   26.5248 C   0  0  0  0  0  0  0  0  0  0  0  0
    3.6319   -4.1291   32.8192 C   0  0  0  0  0  0  0  0  0  0  0  0
    4.2024   -3.8760   34.1637 N   0  0  0  0  0  0  0  0  0  0  0  0
    5.8708   -4.0393   34.3274 S   0  0  0  0  0  0  0  0  0  0  0  0
    6.4878   -3.5028   33.1341 O   0  0  0  0  0  0  0  0  0  0  0  0
    6.2081   -3.5359   35.6413 O   0  0  0  0  0  0  0  0  0  0  0  0
    6.3458   -5.7261   34.3847 C   0  0  0  0  0  0  0  0  0  0  0  0
    7.5506   -6.1631   33.8657 C   0  0  0  0  0  0  0  0  0  0  0  0
    7.7891   -7.8162   34.2440 S   0  0  0  0  0  0  0  0  0  0  0  0
    6.2834   -7.8304   35.0585 C   0  0  0  0  0  0  0  0  0  0  0  0
    5.5826   -6.7156   35.0297 N   0  0  0  0  0  0  0  0  0  0  0  0
    0.8384   -4.9509   34.8626 N   0  0  0  0  0  0  0  0  0  0  0  0
    0.5937   -4.8535   37.7772 H   0  0  0  0  0  0  0  0  0  0  0  0
   -0.6087   -6.1468   37.6100 H   0  0  0  0  0  0  0  0  0  0  0  0
   -0.8583   -4.5900   36.7920 H   0  0  0  0  0  0  0  0  0  0  0  0
    1.0975   -7.7504   36.7450 H   0  0  0  0  0  0  0  0  0  0  0  0
    3.6937   -7.9660   34.7607 H   0  0  0  0  0  0  0  0  0  0  0  0
    1.7534   -3.3023   33.3441 H   0  0  0  0  0  0  0  0  0  0  0  0
    1.1679   -3.2055   31.2503 H   0  0  0  0  0  0  0  0  0  0  0  0
    0.4332   -4.7505   31.5542 H   0  0  0  0  0  0  0  0  0  0  0  0
    1.6376   -5.7034   30.0690 H   0  0  0  0  0  0  0  0  0  0  0  0
    2.6918   -1.9644   28.0732 H   0  0  0  0  0  0  0  0  0  0  0  0
    4.3301   -5.0110   29.3816 H   0  0  0  0  0  0  0  0  0  0  0  0
    9.8850   -7.7285   31.8523 H   0  0  0  0  0  0  0  0  0  0  0  0
   11.8803   -9.4492   31.5700 H   0  0  0  0  0  0  0  0  0  0  0  0
   11.8606  -10.5295   29.1647 H   0  0  0  0  0  0  0  0  0  0  0  0
    7.6317   -7.7683   27.6275 H   0  0  0  0  0  0  0  0  0  0  0  0
    6.9758   -4.4466   26.9224 H   0  0  0  0  0  0  0  0  0  0  0  0
    5.3755   -4.1847   26.2018 H   0  0  0  0  0  0  0  0  0  0  0  0
    6.0428   -6.0443   24.6706 H   0  0  0  0  0  0  0  0  0  0  0  0
    7.1732   -6.6930   25.8430 H   0  0  0  0  0  0  0  0  0  0  0  0
    5.1773   -7.8937   26.7166 H   0  0  0  0  0  0  0  0  0  0  0  0
    4.0773   -6.6884   26.0477 H   0  0  0  0  0  0  0  0  0  0  0  0
    4.0696   -5.0399   32.4072 H   0  0  0  0  0  0  0  0  0  0  0  0
    3.9087   -3.2885   32.1744 H   0  0  0  0  0  0  0  0  0  0  0  0
    3.8943   -3.0139   34.6139 H   0  0  0  0  0  0  0  0  0  0  0  0
    8.2867   -5.5924   33.3154 H   0  0  0  0  0  0  0  0  0  0  0  0
    5.9301   -8.7258   35.5544 H   0  0  0  0  0  0  0  0  0  0  0  0
  1  2  1  0
  2  3  2  0
  3  4  1  0
  4  5  1  0
  4  6  2  0
  6  7  1  0
  7  8  1  0
  8  9  1  0
  9 10  1  0
 10 11  1  0
 11 12  1  0
 11 13  1  0
 11 14  1  0
 14 15  2  0
 14 16  1  0
 16 17  1  0
 17 18  1  0
 18 19  2  0
 19 20  1  0
 20 21  2  0
 21 22  1  0
 22 23  2  0
 23 24  1  0
 24 25  2  0
 25 26  1  0
 21 27  1  0
 17 28  1  0
 28 29  1  0
 29 30  1  0
  8 31  1  0
 31 32  1  0
 32 33  1  0
 33 34  2  0
 33 35  2  0
 33 36  1  0
 36 37  2  0
 37 38  1  0
 38 39  1  0
 39 40  2  0
  7 41  2  0
 41  2  1  0
 30 17  1  0
 40 36  1  0
 27 18  1  0
 26 22  1  0
  1 42  1  0
  1 43  1  0
  1 44  1  0
  3 45  1  0
  5 46  1  0
  8 47  1  0
  9 48  1  0
  9 49  1  0
 10 50  1  0
 12 51  1  0
 16 52  1  0
 23 53  1  0
 24 54  1  0
 25 55  1  0
 27 56  1  0
 28 57  1  0
 28 58  1  0
 29 59  1  0
 29 60  1  0
 30 61  1  0
 30 62  1  0
 31 63  1  0
 31 64  1  0
 32 65  1  0
 37 66  1  0
 39 67  1  0
M  END
>  <Energy>  (442) 
25.816200575521382

>  <compound_id>  (442) 
2613

>  <target_id>  (442) 
1

>  <reference_id>  (442) 
167

>  <inspiration_ids>  (442) 
[175, 167]

>  <energy_score>  (442) 
-136.38994294913317

>  <distance_score>  (442) 
5.75838094496253

>  <path>  (442) 
/opt/xchem-fragalysis-2/maxwin/BulkDock/SCRATCH/505736/C2613-P167/C2613-P167.minimised.mol

>  <scratch_subdir>  (442) 
/opt/xchem-fragalysis-2/maxwin/BulkDock/SCRATCH/505736/C2613-P167

>  <fragmenstein_runtime>  (442) 
13.00931429862976

>  <fragmenstein_outcome>  (442) 
too moved

>  <fragmenstein_mode>  (442) 
expansion

>  <fragmenstein_error>  (442) 


$$$$
C237-P175
     RDKit          3D

 66 70  0  0  0  0  0  0  0  0999 V2000
   -1.4054   -8.1378   32.0458 N   0  0  0  0  0  0  0  0  0  0  0  0
   -0.5525   -7.0522   31.8553 C   0  0  0  0  0  0  0  0  0  0  0  0
   -0.4774   -6.0219   32.7877 C   0  0  0  0  0  0  0  0  0  0  0  0
    0.3874   -4.9463   32.5501 C   0  0  0  0  0  0  0  0  0  0  0  0
    1.1643   -4.9448   31.3933 C   0  0  0  0  0  0  0  0  0  0  0  0
    2.2981   -3.6406   31.0499 S   0  0  0  0  0  0  0  0  0  0  0  0
    1.6150   -2.4034   31.3446 O   0  0  0  0  0  0  0  0  0  0  0  0
    3.5342   -3.9973   31.7122 O   0  0  0  0  0  0  0  0  0  0  0  0
    2.6103   -3.7066   29.3533 N   0  0  0  0  0  0  0  0  0  0  0  0
    2.3812   -2.4141   28.5939 C   0  0  0  0  0  0  0  0  0  0  0  0
    1.6798   -2.6479   27.2296 C   0  0  0  0  0  0  0  0  0  0  0  0
    2.7005   -3.6597   26.1904 N   0  0  0  0  0  0  0  0  0  0  0  0
    2.2004   -5.1294   25.7455 C   0  0  0  0  0  0  0  0  0  0  0  0
    0.6894   -5.2437   23.8439 S   0  0  0  0  0  0  0  0  0  0  0  0
    3.6401   -6.4931   24.8063 Cl  0  0  0  0  0  0  0  0  0  0  0  0
    3.0459   -6.1370   26.9639 C   0  0  0  0  0  0  0  0  0  0  0  0
    2.5964   -7.0572   27.5954 O   0  0  0  0  0  0  0  0  0  0  0  0
    4.4790   -5.5824   26.8945 N   0  0  0  0  0  0  0  0  0  0  0  0
    5.7216   -6.0709   27.4895 C   0  0  0  0  0  0  0  0  0  0  0  0
    5.9515   -5.9166   29.0035 C   0  0  0  0  0  0  0  0  0  0  0  0
    5.6397   -4.8366   29.7295 N   0  0  0  0  0  0  0  0  0  0  0  0
    6.4144   -5.0428   30.8331 N   0  0  0  0  0  0  0  0  0  0  0  0
    7.1492   -6.1940   30.7220 C   0  0  0  0  0  0  0  0  0  0  0  0
    8.0901   -6.7533   31.6441 C   0  0  0  0  0  0  0  0  0  0  0  0
    8.4272   -6.3380   32.9152 C   0  0  0  0  0  0  0  0  0  0  0  0
    9.3918   -7.1965   33.5297 C   0  0  0  0  0  0  0  0  0  0  0  0
    9.7671   -8.2353   32.7091 C   0  0  0  0  0  0  0  0  0  0  0  0
    8.9674   -8.1755   31.2060 S   0  0  0  0  0  0  0  0  0  0  0  0
    6.8086   -6.7854   29.6061 N   0  0  0  0  0  0  0  0  0  0  0  0
    6.9618   -5.4646   26.7209 C   0  0  0  0  0  0  0  0  0  0  0  0
    7.0067   -6.7138   25.8332 C   0  0  0  0  0  0  0  0  0  0  0  0
    6.1656   -7.4491   26.8903 C   0  0  0  0  0  0  0  0  0  0  0  0
    1.3075   -0.9819   26.6427 C   0  0  0  0  0  0  0  0  0  0  0  0
   -0.3290   -0.4345   26.6898 N   0  0  0  0  0  0  0  0  0  0  0  0
   -1.3979   -0.2068   25.3407 C   0  0  0  0  0  0  0  0  0  0  0  0
   -0.6445   -0.7258   23.5189 C   0  0  0  0  0  0  0  0  0  0  0  0
    1.5803   -0.8654   23.8643 C   0  0  0  0  0  0  0  0  0  0  0  0
    2.3749    0.8705   24.1061 O   0  0  0  0  0  0  0  0  0  0  0  0
    2.3318   -0.9160   25.4584 N   0  0  0  0  0  0  0  0  0  0  0  0
    1.0325   -6.0025   30.5287 C   0  0  0  0  0  0  0  0  0  0  0  0
    0.1886   -7.0460   30.7338 N   0  0  0  0  0  0  0  0  0  0  0  0
   -1.1677   -8.6344   32.9071 H   0  0  0  0  0  0  0  0  0  0  0  0
   -2.3674   -7.8347   32.1501 H   0  0  0  0  0  0  0  0  0  0  0  0
   -1.0817   -6.0403   33.6896 H   0  0  0  0  0  0  0  0  0  0  0  0
    0.4518   -4.1295   33.2655 H   0  0  0  0  0  0  0  0  0  0  0  0
    3.5969   -4.0182   29.2851 H   0  0  0  0  0  0  0  0  0  0  0  0
    3.3539   -1.9314   28.4447 H   0  0  0  0  0  0  0  0  0  0  0  0
    1.7579   -1.7226   29.1652 H   0  0  0  0  0  0  0  0  0  0  0  0
    0.7388   -3.1803   27.3927 H   0  0  0  0  0  0  0  0  0  0  0  0
    3.4367   -3.8019   26.8827 H   0  0  0  0  0  0  0  0  0  0  0  0
    0.9587   -6.4775   23.4379 H   0  0  0  0  0  0  0  0  0  0  0  0
    4.5224   -4.8473   26.1911 H   0  0  0  0  0  0  0  0  0  0  0  0
    6.3752   -4.3778   31.5974 H   0  0  0  0  0  0  0  0  0  0  0  0
    8.0050   -5.4699   33.4056 H   0  0  0  0  0  0  0  0  0  0  0  0
    9.7895   -7.0572   34.5279 H   0  0  0  0  0  0  0  0  0  0  0  0
   10.4744   -9.0262   32.9198 H   0  0  0  0  0  0  0  0  0  0  0  0
    7.8710   -5.3411   27.3233 H   0  0  0  0  0  0  0  0  0  0  0  0
    6.7888   -4.5245   26.1867 H   0  0  0  0  0  0  0  0  0  0  0  0
    6.5162   -6.5860   24.8639 H   0  0  0  0  0  0  0  0  0  0  0  0
    8.0040   -7.1282   25.6603 H   0  0  0  0  0  0  0  0  0  0  0  0
    5.3713   -8.0737   26.4753 H   0  0  0  0  0  0  0  0  0  0  0  0
    6.7751   -8.0875   27.5400 H   0  0  0  0  0  0  0  0  0  0  0  0
   -2.3277    0.2731   25.6334 H   0  0  0  0  0  0  0  0  0  0  0  0
   -0.9754    0.7517   23.2104 H   0  0  0  0  0  0  0  0  0  0  0  0
    3.2968    0.5207   24.1616 H   0  0  0  0  0  0  0  0  0  0  0  0
    1.6202   -6.0716   29.6234 H   0  0  0  0  0  0  0  0  0  0  0  0
  1  2  1  0
  2  3  2  0
  3  4  1  0
  4  5  2  0
  5  6  1  0
  6  7  2  0
  6  8  2  0
  6  9  1  0
  9 10  1  0
 10 11  1  0
 11 12  1  0
 12 13  1  0
 13 14  1  0
 13 15  1  0
 13 16  1  0
 16 17  2  0
 16 18  1  0
 18 19  1  0
 19 20  1  0
 20 21  2  0
 21 22  1  0
 22 23  1  0
 23 24  1  0
 24 25  2  0
 25 26  1  0
 26 27  2  0
 27 28  1  0
 23 29  2  0
 19 30  1  0
 30 31  1  0
 31 32  1  0
 11 33  1  0
 33 34  2  0
 34 35  1  0
 35 36  2  0
 36 37  1  0
 37 38  1  0
 37 39  2  0
  5 40  1  0
 40 41  2  0
 41  2  1  0
 32 19  1  0
 39 33  1  0
 29 20  1  0
 28 24  1  0
  1 42  1  0
  1 43  1  0
  3 44  1  0
  4 45  1  0
  9 46  1  0
 10 47  1  0
 10 48  1  0
 11 49  1  0
 12 50  1  0
 14 51  1  0
 18 52  1  0
 22 53  1  0
 25 54  1  0
 26 55  1  0
 27 56  1  0
 30 57  1  0
 30 58  1  0
 31 59  1  0
 31 60  1  0
 32 61  1  0
 32 62  1  0
 35 63  1  0
 36 64  1  0
 38 65  1  0
 40 66  1  0
M  END
>  <Energy>  (443) 
1057.5662005606646

>  <compound_id>  (443) 
237

>  <target_id>  (443) 
1

>  <reference_id>  (443) 
175

>  <inspiration_ids>  (443) 
[175, 180]

>  <energy_score>  (443) 
957.7050003441058

>  <distance_score>  (443) 
5.198227300571652

>  <path>  (443) 
/opt/xchem-fragalysis-2/maxwin/BulkDock/SCRATCH/505736/C237-P175/C237-P175.minimised.mol

>  <scratch_subdir>  (443) 
/opt/xchem-fragalysis-2/maxwin/BulkDock/SCRATCH/505736/C237-P175

>  <fragmenstein_runtime>  (443) 
23.115930795669556

>  <fragmenstein_outcome>  (443) 
too moved

>  <fragmenstein_mode>  (443) 
expansion

>  <fragmenstein_error>  (443) 


$$$$
C237-P180
     RDKit          3D

 66 70  0  0  0  0  0  0  0  0999 V2000
   -1.3375   -7.8510   33.1199 N   0  0  0  0  0  0  0  0  0  0  0  0
   -0.5296   -6.8386   32.6503 C   0  0  0  0  0  0  0  0  0  0  0  0
    0.3439   -6.1647   33.4956 C   0  0  0  0  0  0  0  0  0  0  0  0
    1.2868   -5.2855   32.9430 C   0  0  0  0  0  0  0  0  0  0  0  0
    1.3246   -5.1185   31.5565 C   0  0  0  0  0  0  0  0  0  0  0  0
    2.6828   -4.3687   30.6930 S   0  0  0  0  0  0  0  0  0  0  0  0
    3.5288   -3.7423   31.6791 O   0  0  0  0  0  0  0  0  0  0  0  0
    3.1937   -5.3681   29.7785 O   0  0  0  0  0  0  0  0  0  0  0  0
    2.1128   -3.0952   29.7384 N   0  0  0  0  0  0  0  0  0  0  0  0
    3.2615   -2.3220   29.0822 C   0  0  0  0  0  0  0  0  0  0  0  0
    2.8069   -1.6307   27.7680 C   0  0  0  0  0  0  0  0  0  0  0  0
    3.8518   -1.5768   26.7135 N   0  0  0  0  0  0  0  0  0  0  0  0
    4.2274   -2.7698   25.9327 C   0  0  0  0  0  0  0  0  0  0  0  0
    3.1037   -4.3154   26.2180 S   0  0  0  0  0  0  0  0  0  0  0  0
    4.1671   -2.0874   23.9710 Cl  0  0  0  0  0  0  0  0  0  0  0  0
    5.7467   -3.1405   26.2799 C   0  0  0  0  0  0  0  0  0  0  0  0
    6.5724   -2.3187   26.4272 O   0  0  0  0  0  0  0  0  0  0  0  0
    5.8183   -4.6968   26.4652 N   0  0  0  0  0  0  0  0  0  0  0  0
    6.8880   -5.5346   26.9581 C   0  0  0  0  0  0  0  0  0  0  0  0
    6.5277   -6.3639   28.2700 C   0  0  0  0  0  0  0  0  0  0  0  0
    5.7171   -7.4325   28.2000 N   0  0  0  0  0  0  0  0  0  0  0  0
    6.5020   -8.3507   28.8063 N   0  0  0  0  0  0  0  0  0  0  0  0
    7.5998   -7.7870   29.3596 C   0  0  0  0  0  0  0  0  0  0  0  0
    8.7419   -8.4986   29.8027 C   0  0  0  0  0  0  0  0  0  0  0  0
    9.4206   -8.3487   30.9902 C   0  0  0  0  0  0  0  0  0  0  0  0
   10.5613   -9.2028   31.0636 C   0  0  0  0  0  0  0  0  0  0  0  0
   10.7311   -9.9436   29.9139 C   0  0  0  0  0  0  0  0  0  0  0  0
    9.5087   -9.6233   28.7624 S   0  0  0  0  0  0  0  0  0  0  0  0
    7.5052   -6.4905   29.2298 N   0  0  0  0  0  0  0  0  0  0  0  0
    8.3042   -4.9399   27.0351 C   0  0  0  0  0  0  0  0  0  0  0  0
    8.8283   -6.2080   26.3308 C   0  0  0  0  0  0  0  0  0  0  0  0
    7.3929   -6.5191   25.8553 C   0  0  0  0  0  0  0  0  0  0  0  0
    2.2769   -0.2230   28.1049 C   0  0  0  0  0  0  0  0  0  0  0  0
    1.4664   -0.0817   29.1793 N   0  0  0  0  0  0  0  0  0  0  0  0
    0.9676    1.1532   29.3974 C   0  0  0  0  0  0  0  0  0  0  0  0
    1.2354    2.2336   28.5957 C   0  0  0  0  0  0  0  0  0  0  0  0
    2.0576    1.9671   27.5378 C   0  0  0  0  0  0  0  0  0  0  0  0
    2.3919    2.9495   26.6639 O   0  0  0  0  0  0  0  0  0  0  0  0
    2.5857    0.7763   27.2498 N   0  0  0  0  0  0  0  0  0  0  0  0
    0.4011   -5.8095   30.8035 C   0  0  0  0  0  0  0  0  0  0  0  0
   -0.5276   -6.6547   31.3206 N   0  0  0  0  0  0  0  0  0  0  0  0
   -1.9559   -8.2055   32.3996 H   0  0  0  0  0  0  0  0  0  0  0  0
   -1.7826   -7.6833   34.0101 H   0  0  0  0  0  0  0  0  0  0  0  0
    0.3367   -6.3543   34.5644 H   0  0  0  0  0  0  0  0  0  0  0  0
    2.0223   -4.8019   33.5820 H   0  0  0  0  0  0  0  0  0  0  0  0
    1.5201   -2.4369   30.2573 H   0  0  0  0  0  0  0  0  0  0  0  0
    3.6591   -1.6006   29.8066 H   0  0  0  0  0  0  0  0  0  0  0  0
    4.0682   -3.0283   28.8599 H   0  0  0  0  0  0  0  0  0  0  0  0
    1.9187   -2.1450   27.4013 H   0  0  0  0  0  0  0  0  0  0  0  0
    3.6445   -0.8208   26.0551 H   0  0  0  0  0  0  0  0  0  0  0  0
    3.4858   -4.5524   27.4858 H   0  0  0  0  0  0  0  0  0  0  0  0
    4.9407   -5.1145   26.1727 H   0  0  0  0  0  0  0  0  0  0  0  0
    6.2689   -9.3349   28.7731 H   0  0  0  0  0  0  0  0  0  0  0  0
    9.1190   -7.6547   31.7666 H   0  0  0  0  0  0  0  0  0  0  0  0
   11.2385   -9.2503   31.9083 H   0  0  0  0  0  0  0  0  0  0  0  0
   11.5182  -10.6519   29.6922 H   0  0  0  0  0  0  0  0  0  0  0  0
    8.4791   -3.9965   26.5184 H   0  0  0  0  0  0  0  0  0  0  0  0
    8.7279   -4.7785   28.0333 H   0  0  0  0  0  0  0  0  0  0  0  0
    9.2278   -6.9564   27.0229 H   0  0  0  0  0  0  0  0  0  0  0  0
    9.6084   -6.0239   25.5925 H   0  0  0  0  0  0  0  0  0  0  0  0
    7.1154   -7.5750   25.9421 H   0  0  0  0  0  0  0  0  0  0  0  0
    7.1324   -6.2224   24.8361 H   0  0  0  0  0  0  0  0  0  0  0  0
    0.3215    1.2492   30.2653 H   0  0  0  0  0  0  0  0  0  0  0  0
    0.8306    3.2173   28.7797 H   0  0  0  0  0  0  0  0  0  0  0  0
    2.9956    2.4724   26.0633 H   0  0  0  0  0  0  0  0  0  0  0  0
    0.3980   -5.7405   29.7193 H   0  0  0  0  0  0  0  0  0  0  0  0
  1  2  1  0
  2  3  2  0
  3  4  1  0
  4  5  2  0
  5  6  1  0
  6  7  2  0
  6  8  2  0
  6  9  1  0
  9 10  1  0
 10 11  1  0
 11 12  1  0
 12 13  1  0
 13 14  1  0
 13 15  1  0
 13 16  1  0
 16 17  2  0
 16 18  1  0
 18 19  1  0
 19 20  1  0
 20 21  2  0
 21 22  1  0
 22 23  1  0
 23 24  1  0
 24 25  2  0
 25 26  1  0
 26 27  2  0
 27 28  1  0
 23 29  2  0
 19 30  1  0
 30 31  1  0
 31 32  1  0
 11 33  1  0
 33 34  2  0
 34 35  1  0
 35 36  2  0
 36 37  1  0
 37 38  1  0
 37 39  2  0
  5 40  1  0
 40 41  2  0
 41  2  1  0
 32 19  1  0
 39 33  1  0
 29 20  1  0
 28 24  1  0
  1 42  1  0
  1 43  1  0
  3 44  1  0
  4 45  1  0
  9 46  1  0
 10 47  1  0
 10 48  1  0
 11 49  1  0
 12 50  1  0
 14 51  1  0
 18 52  1  0
 22 53  1  0
 25 54  1  0
 26 55  1  0
 27 56  1  0
 30 57  1  0
 30 58  1  0
 31 59  1  0
 31 60  1  0
 32 61  1  0
 32 62  1  0
 35 63  1  0
 36 64  1  0
 38 65  1  0
 40 66  1  0
M  END
>  <Energy>  (444) 
44.702403181214066

>  <compound_id>  (444) 
237

>  <target_id>  (444) 
1

>  <reference_id>  (444) 
180

>  <inspiration_ids>  (444) 
[175, 180]

>  <energy_score>  (444) 
-67.20631402579622

>  <distance_score>  (444) 
5.080814013837623

>  <path>  (444) 
/opt/xchem-fragalysis-2/maxwin/BulkDock/SCRATCH/505736/C237-P180/C237-P180.minimised.mol

>  <scratch_subdir>  (444) 
/opt/xchem-fragalysis-2/maxwin/BulkDock/SCRATCH/505736/C237-P180

>  <fragmenstein_runtime>  (444) 
22.791226863861084

>  <fragmenstein_outcome>  (444) 
too moved

>  <fragmenstein_mode>  (444) 
expansion

>  <fragmenstein_error>  (444) 


$$$$
C237-P175
     RDKit          3D

 66 70  0  0  0  0  0  0  0  0999 V2000
   -2.4130   -8.3936   35.5553 N   0  0  0  0  0  0  0  0  0  0  0  0
   -1.4732   -7.5471   34.9868 C   0  0  0  0  0  0  0  0  0  0  0  0
   -0.1691   -7.4818   35.4364 C   0  0  0  0  0  0  0  0  0  0  0  0
    0.7381   -6.7484   34.6847 C   0  0  0  0  0  0  0  0  0  0  0  0
    0.2555   -6.0219   33.6016 C   0  0  0  0  0  0  0  0  0  0  0  0
    1.2956   -5.4002   32.3688 S   0  0  0  0  0  0  0  0  0  0  0  0
    2.4364   -6.2761   32.3551 O   0  0  0  0  0  0  0  0  0  0  0  0
    1.4330   -3.9826   32.5916 O   0  0  0  0  0  0  0  0  0  0  0  0
    0.5126   -5.5951   30.8769 N   0  0  0  0  0  0  0  0  0  0  0  0
   -0.2362   -6.8143   30.4363 C   0  0  0  0  0  0  0  0  0  0  0  0
    0.6069   -7.9951   29.9462 C   0  0  0  0  0  0  0  0  0  0  0  0
    1.7258   -7.6332   28.8721 N   0  0  0  0  0  0  0  0  0  0  0  0
    2.6833   -6.4692   28.4663 C   0  0  0  0  0  0  0  0  0  0  0  0
    3.2441   -7.4822   26.6688 S   0  0  0  0  0  0  0  0  0  0  0  0
    2.1675   -4.8801   27.6787 Cl  0  0  0  0  0  0  0  0  0  0  0  0
    4.2662   -6.3701   28.7881 C   0  0  0  0  0  0  0  0  0  0  0  0
    4.7758   -7.3139   29.3058 O   0  0  0  0  0  0  0  0  0  0  0  0
    4.8446   -5.1459   28.2925 N   0  0  0  0  0  0  0  0  0  0  0  0
    6.2461   -4.7201   28.1802 C   0  0  0  0  0  0  0  0  0  0  0  0
    7.1802   -5.5673   29.1191 C   0  0  0  0  0  0  0  0  0  0  0  0
    7.4028   -5.2511   30.4015 N   0  0  0  0  0  0  0  0  0  0  0  0
    8.0257   -6.3582   30.8355 N   0  0  0  0  0  0  0  0  0  0  0  0
    8.1554   -7.2947   29.8499 C   0  0  0  0  0  0  0  0  0  0  0  0
    8.6787   -8.6138   30.0480 C   0  0  0  0  0  0  0  0  0  0  0  0
    9.2971   -9.1195   31.1782 C   0  0  0  0  0  0  0  0  0  0  0  0
    9.6586  -10.4918   31.0404 C   0  0  0  0  0  0  0  0  0  0  0  0
    9.3070  -10.9928   29.8093 C   0  0  0  0  0  0  0  0  0  0  0  0
    8.5568   -9.8139   28.8260 S   0  0  0  0  0  0  0  0  0  0  0  0
    7.6705   -6.7943   28.7348 N   0  0  0  0  0  0  0  0  0  0  0  0
    6.4629   -3.1930   28.1970 C   0  0  0  0  0  0  0  0  0  0  0  0
    6.3509   -3.2090   26.6590 C   0  0  0  0  0  0  0  0  0  0  0  0
    6.7372   -4.6974   26.7031 C   0  0  0  0  0  0  0  0  0  0  0  0
   -0.4120   -9.3200   29.5144 C   0  0  0  0  0  0  0  0  0  0  0  0
   -0.4600   -9.5604   28.2254 N   0  0  0  0  0  0  0  0  0  0  0  0
   -1.4473  -10.6977   27.6605 C   0  0  0  0  0  0  0  0  0  0  0  0
   -2.3289  -11.5765   28.1355 C   0  0  0  0  0  0  0  0  0  0  0  0
   -2.0845  -11.3189   29.3954 C   0  0  0  0  0  0  0  0  0  0  0  0
   -2.9342  -12.3160   29.7872 O   0  0  0  0  0  0  0  0  0  0  0  0
   -1.2320  -10.2133   30.2155 N   0  0  0  0  0  0  0  0  0  0  0  0
   -1.0807   -5.9763   33.3654 C   0  0  0  0  0  0  0  0  0  0  0  0
   -1.9295   -6.7951   33.9855 N   0  0  0  0  0  0  0  0  0  0  0  0
   -1.9663   -9.3269   35.6471 H   0  0  0  0  0  0  0  0  0  0  0  0
   -3.1714   -8.4740   34.8887 H   0  0  0  0  0  0  0  0  0  0  0  0
    0.1426   -8.0729   36.2907 H   0  0  0  0  0  0  0  0  0  0  0  0
    1.7973   -6.7748   34.9211 H   0  0  0  0  0  0  0  0  0  0  0  0
    0.1830   -4.7037   30.4938 H   0  0  0  0  0  0  0  0  0  0  0  0
   -0.9165   -7.1633   31.2136 H   0  0  0  0  0  0  0  0  0  0  0  0
   -0.8937   -6.4969   29.6299 H   0  0  0  0  0  0  0  0  0  0  0  0
    1.0861   -8.3416   30.8362 H   0  0  0  0  0  0  0  0  0  0  0  0
    1.8789   -8.4384   28.2763 H   0  0  0  0  0  0  0  0  0  0  0  0
    4.1727   -6.5857   26.2949 H   0  0  0  0  0  0  0  0  0  0  0  0
    4.0987   -4.5263   27.9885 H   0  0  0  0  0  0  0  0  0  0  0  0
    8.2921   -6.4243   31.8089 H   0  0  0  0  0  0  0  0  0  0  0  0
    9.4873   -8.5476   32.0773 H   0  0  0  0  0  0  0  0  0  0  0  0
   10.1463  -11.0831   31.8059 H   0  0  0  0  0  0  0  0  0  0  0  0
    9.4522  -11.9985   29.4414 H   0  0  0  0  0  0  0  0  0  0  0  0
    5.7011   -2.5993   28.7111 H   0  0  0  0  0  0  0  0  0  0  0  0
    7.4495   -2.8734   28.5544 H   0  0  0  0  0  0  0  0  0  0  0  0
    7.0502   -2.5509   26.1399 H   0  0  0  0  0  0  0  0  0  0  0  0
    5.3377   -3.0248   26.2845 H   0  0  0  0  0  0  0  0  0  0  0  0
    7.8133   -4.8697   26.5806 H   0  0  0  0  0  0  0  0  0  0  0  0
    6.2031   -5.3371   25.9945 H   0  0  0  0  0  0  0  0  0  0  0  0
   -1.7706  -10.5322   26.6353 H   0  0  0  0  0  0  0  0  0  0  0  0
   -2.9872  -12.2234   27.5961 H   0  0  0  0  0  0  0  0  0  0  0  0
   -2.3379  -13.0636   29.9828 H   0  0  0  0  0  0  0  0  0  0  0  0
   -1.5082   -5.3460   32.5985 H   0  0  0  0  0  0  0  0  0  0  0  0
  1  2  1  0
  2  3  2  0
  3  4  1  0
  4  5  2  0
  5  6  1  0
  6  7  2  0
  6  8  2  0
  6  9  1  0
  9 10  1  0
 10 11  1  0
 11 12  1  0
 12 13  1  0
 13 14  1  0
 13 15  1  0
 13 16  1  0
 16 17  2  0
 16 18  1  0
 18 19  1  0
 19 20  1  0
 20 21  2  0
 21 22  1  0
 22 23  1  0
 23 24  1  0
 24 25  2  0
 25 26  1  0
 26 27  2  0
 27 28  1  0
 23 29  2  0
 19 30  1  0
 30 31  1  0
 31 32  1  0
 11 33  1  0
 33 34  2  0
 34 35  1  0
 35 36  2  0
 36 37  1  0
 37 38  1  0
 37 39  2  0
  5 40  1  0
 40 41  2  0
 41  2  1  0
 32 19  1  0
 39 33  1  0
 29 20  1  0
 28 24  1  0
  1 42  1  0
  1 43  1  0
  3 44  1  0
  4 45  1  0
  9 46  1  0
 10 47  1  0
 10 48  1  0
 11 49  1  0
 12 50  1  0
 14 51  1  0
 18 52  1  0
 22 53  1  0
 25 54  1  0
 26 55  1  0
 27 56  1  0
 30 57  1  0
 30 58  1  0
 31 59  1  0
 31 60  1  0
 32 61  1  0
 32 62  1  0
 35 63  1  0
 36 64  1  0
 38 65  1  0
 40 66  1  0
M  END
>  <Energy>  (445) 
190.46966263713824

>  <compound_id>  (445) 
237

>  <target_id>  (445) 
1

>  <reference_id>  (445) 
175

>  <inspiration_ids>  (445) 
[175, 183]

>  <energy_score>  (445) 
94.24579809521646

>  <distance_score>  (445) 
5.812233003460418

>  <path>  (445) 
/opt/xchem-fragalysis-2/maxwin/BulkDock/SCRATCH/505736/C237-P175/C237-P175.minimised.mol

>  <scratch_subdir>  (445) 
/opt/xchem-fragalysis-2/maxwin/BulkDock/SCRATCH/505736/C237-P175

>  <fragmenstein_runtime>  (445) 
18.01878023147583

>  <fragmenstein_outcome>  (445) 
too moved

>  <fragmenstein_mode>  (445) 
expansion

>  <fragmenstein_error>  (445) 


$$$$
C237-P183
     RDKit          3D

 66 70  0  0  0  0  0  0  0  0999 V2000
   -0.3196   -7.5179   33.9427 N   0  0  0  0  0  0  0  0  0  0  0  0
   -0.0217   -6.5426   33.0085 C   0  0  0  0  0  0  0  0  0  0  0  0
    1.2901   -6.3046   32.6321 C   0  0  0  0  0  0  0  0  0  0  0  0
    1.5495   -5.4316   31.5790 C   0  0  0  0  0  0  0  0  0  0  0  0
    0.4865   -4.7776   30.9840 C   0  0  0  0  0  0  0  0  0  0  0  0
    0.7051   -3.5184   29.7784 S   0  0  0  0  0  0  0  0  0  0  0  0
   -0.3892   -2.5945   29.9789 O   0  0  0  0  0  0  0  0  0  0  0  0
    2.0774   -3.0859   29.9389 O   0  0  0  0  0  0  0  0  0  0  0  0
    0.5235   -4.3070   28.1950 N   0  0  0  0  0  0  0  0  0  0  0  0
   -0.9681   -4.5804   27.8259 C   0  0  0  0  0  0  0  0  0  0  0  0
   -1.7205   -5.5286   26.3563 C   0  0  0  0  0  0  0  0  0  0  0  0
   -1.2512   -5.1384   24.6103 N   0  0  0  0  0  0  0  0  0  0  0  0
    0.2308   -4.5529   23.7904 C   0  0  0  0  0  0  0  0  0  0  0  0
    0.7406   -3.1052   22.8304 S   0  0  0  0  0  0  0  0  0  0  0  0
    0.9638   -5.0291   21.7150 Cl  0  0  0  0  0  0  0  0  0  0  0  0
    1.0614   -5.5797   24.2518 C   0  0  0  0  0  0  0  0  0  0  0  0
    0.8872   -6.5813   23.5702 O   0  0  0  0  0  0  0  0  0  0  0  0
    2.2349   -5.3819   25.6258 N   0  0  0  0  0  0  0  0  0  0  0  0
    3.3370   -6.3593   26.1765 C   0  0  0  0  0  0  0  0  0  0  0  0
    3.5232   -6.2642   27.7789 C   0  0  0  0  0  0  0  0  0  0  0  0
    3.5008   -5.0738   28.3865 N   0  0  0  0  0  0  0  0  0  0  0  0
    4.6896   -5.0805   29.0450 N   0  0  0  0  0  0  0  0  0  0  0  0
    5.3022   -6.3018   28.9259 C   0  0  0  0  0  0  0  0  0  0  0  0
    6.6348   -6.6604   29.3330 C   0  0  0  0  0  0  0  0  0  0  0  0
    7.4956   -5.9942   30.1845 C   0  0  0  0  0  0  0  0  0  0  0  0
    8.7116   -6.7140   30.4097 C   0  0  0  0  0  0  0  0  0  0  0  0
    8.7565   -7.8946   29.7048 C   0  0  0  0  0  0  0  0  0  0  0  0
    7.3543   -8.1213   28.7605 S   0  0  0  0  0  0  0  0  0  0  0  0
    4.4397   -7.1153   28.3412 N   0  0  0  0  0  0  0  0  0  0  0  0
    4.8321   -5.9745   25.7659 C   0  0  0  0  0  0  0  0  0  0  0  0
    5.0551   -7.3754   25.2244 C   0  0  0  0  0  0  0  0  0  0  0  0
    3.6043   -7.7492   25.5497 C   0  0  0  0  0  0  0  0  0  0  0  0
   -2.2489   -7.2521   27.1273 C   0  0  0  0  0  0  0  0  0  0  0  0
   -2.5109   -8.2935   26.0740 N   0  0  0  0  0  0  0  0  0  0  0  0
   -1.9392   -9.9712   26.1147 C   0  0  0  0  0  0  0  0  0  0  0  0
   -1.0361  -10.2990   27.7020 C   0  0  0  0  0  0  0  0  0  0  0  0
   -0.8177   -9.0394   28.6839 C   0  0  0  0  0  0  0  0  0  0  0  0
   -0.5491   -9.2201   30.0039 O   0  0  0  0  0  0  0  0  0  0  0  0
   -1.5159   -7.6756   28.4834 N   0  0  0  0  0  0  0  0  0  0  0  0
   -0.7544   -4.9403   31.5452 C   0  0  0  0  0  0  0  0  0  0  0  0
   -1.0461   -5.8616   32.4884 N   0  0  0  0  0  0  0  0  0  0  0  0
    0.1139   -7.3509   34.8430 H   0  0  0  0  0  0  0  0  0  0  0  0
   -1.3296   -7.5709   34.0503 H   0  0  0  0  0  0  0  0  0  0  0  0
    2.1006   -6.8065   33.1415 H   0  0  0  0  0  0  0  0  0  0  0  0
    2.5661   -5.2283   31.2650 H   0  0  0  0  0  0  0  0  0  0  0  0
    1.0529   -5.1822   28.2337 H   0  0  0  0  0  0  0  0  0  0  0  0
   -1.3177   -5.1185   28.6877 H   0  0  0  0  0  0  0  0  0  0  0  0
   -1.3243   -3.5465   27.8561 H   0  0  0  0  0  0  0  0  0  0  0  0
   -1.6534   -6.3906   25.7033 H   0  0  0  0  0  0  0  0  0  0  0  0
   -2.1410   -5.0628   24.1288 H   0  0  0  0  0  0  0  0  0  0  0  0
   -0.3809   -2.3842   23.0041 H   0  0  0  0  0  0  0  0  0  0  0  0
    2.2293   -4.4247   25.9493 H   0  0  0  0  0  0  0  0  0  0  0  0
    5.0209   -4.2259   29.4811 H   0  0  0  0  0  0  0  0  0  0  0  0
    7.2718   -5.0470   30.6597 H   0  0  0  0  0  0  0  0  0  0  0  0
    9.5131   -6.3800   31.0582 H   0  0  0  0  0  0  0  0  0  0  0  0
    9.5487   -8.6317   29.6909 H   0  0  0  0  0  0  0  0  0  0  0  0
    4.9680   -5.0912   25.1719 H   0  0  0  0  0  0  0  0  0  0  0  0
    5.5843   -5.7669   26.5349 H   0  0  0  0  0  0  0  0  0  0  0  0
    5.7976   -7.9612   25.7751 H   0  0  0  0  0  0  0  0  0  0  0  0
    5.3244   -7.3881   24.1722 H   0  0  0  0  0  0  0  0  0  0  0  0
    3.5021   -8.5783   26.2486 H   0  0  0  0  0  0  0  0  0  0  0  0
    3.0630   -8.0567   24.6556 H   0  0  0  0  0  0  0  0  0  0  0  0
   -1.9493  -10.2431   25.0703 H   0  0  0  0  0  0  0  0  0  0  0  0
   -1.6918  -11.0942   28.1757 H   0  0  0  0  0  0  0  0  0  0  0  0
    0.0315   -9.9939   30.1370 H   0  0  0  0  0  0  0  0  0  0  0  0
   -1.5759   -4.2915   31.2668 H   0  0  0  0  0  0  0  0  0  0  0  0
  1  2  1  0
  2  3  2  0
  3  4  1  0
  4  5  2  0
  5  6  1  0
  6  7  2  0
  6  8  2  0
  6  9  1  0
  9 10  1  0
 10 11  1  0
 11 12  1  0
 12 13  1  0
 13 14  1  0
 13 15  1  0
 13 16  1  0
 16 17  2  0
 16 18  1  0
 18 19  1  0
 19 20  1  0
 20 21  2  0
 21 22  1  0
 22 23  1  0
 23 24  1  0
 24 25  2  0
 25 26  1  0
 26 27  2  0
 27 28  1  0
 23 29  2  0
 19 30  1  0
 30 31  1  0
 31 32  1  0
 11 33  1  0
 33 34  2  0
 34 35  1  0
 35 36  2  0
 36 37  1  0
 37 38  1  0
 37 39  2  0
  5 40  1  0
 40 41  2  0
 41  2  1  0
 32 19  1  0
 39 33  1  0
 29 20  1  0
 28 24  1  0
  1 42  1  0
  1 43  1  0
  3 44  1  0
  4 45  1  0
  9 46  1  0
 10 47  1  0
 10 48  1  0
 11 49  1  0
 12 50  1  0
 14 51  1  0
 18 52  1  0
 22 53  1  0
 25 54  1  0
 26 55  1  0
 27 56  1  0
 30 57  1  0
 30 58  1  0
 31 59  1  0
 31 60  1  0
 32 61  1  0
 32 62  1  0
 35 63  1  0
 36 64  1  0
 38 65  1  0
 40 66  1  0
M  END
>  <Energy>  (446) 
721.56118954669455

>  <compound_id>  (446) 
237

>  <target_id>  (446) 
1

>  <reference_id>  (446) 
183

>  <inspiration_ids>  (446) 
[175, 183]

>  <energy_score>  (446) 
625.337325004792

>  <distance_score>  (446) 
5.369464620287021

>  <path>  (446) 
/opt/xchem-fragalysis-2/maxwin/BulkDock/SCRATCH/505736/C237-P183/C237-P183.minimised.mol

>  <scratch_subdir>  (446) 
/opt/xchem-fragalysis-2/maxwin/BulkDock/SCRATCH/505736/C237-P183

>  <fragmenstein_runtime>  (446) 
27.673104286193848

>  <fragmenstein_outcome>  (446) 
too moved

>  <fragmenstein_mode>  (446) 
expansion

>  <fragmenstein_error>  (446) 


$$$$
C2615-P175
     RDKit          3D

 56 59  0  0  0  0  0  0  0  0999 V2000
    3.8915   -6.9194   26.1514 C   0  0  0  0  0  0  0  0  0  0  0  0
    3.5563   -6.5223   27.5816 C   0  0  0  0  0  0  0  0  0  0  0  0
    3.3698   -5.0796   27.8896 N   0  0  0  0  0  0  0  0  0  0  0  0
    4.6547   -4.3446   27.6201 C   0  0  0  0  0  0  0  0  0  0  0  0
    5.9346   -4.8752   28.3650 C   0  0  0  0  0  0  0  0  0  0  0  0
    6.2682   -4.4948   29.5800 N   0  0  0  0  0  0  0  0  0  0  0  0
    7.1743   -5.4115   30.0640 N   0  0  0  0  0  0  0  0  0  0  0  0
    7.3909   -6.3120   29.1249 C   0  0  0  0  0  0  0  0  0  0  0  0
    8.0947   -7.5478   29.2985 C   0  0  0  0  0  0  0  0  0  0  0  0
    8.7381   -7.9697   30.4470 C   0  0  0  0  0  0  0  0  0  0  0  0
    9.2773   -9.2838   30.3263 C   0  0  0  0  0  0  0  0  0  0  0  0
    9.0338   -9.8253   29.0849 C   0  0  0  0  0  0  0  0  0  0  0  0
    8.1747   -8.7466   28.0732 S   0  0  0  0  0  0  0  0  0  0  0  0
    6.7464   -5.9107   27.9838 N   0  0  0  0  0  0  0  0  0  0  0  0
    4.4449   -2.8027   27.6762 C   0  0  0  0  0  0  0  0  0  0  0  0
    5.2935   -2.6920   26.3969 C   0  0  0  0  0  0  0  0  0  0  0  0
    4.8360   -4.1221   26.0810 C   0  0  0  0  0  0  0  0  0  0  0  0
    2.8535   -4.9628   29.3033 C   0  0  0  0  0  0  0  0  0  0  0  0
    3.8435   -5.3759   30.2080 O   0  0  0  0  0  0  0  0  0  0  0  0
    1.8459   -5.9701   29.5175 O   0  0  0  0  0  0  0  0  0  0  0  0
    2.2201   -3.5871   29.8115 C   0  0  0  0  0  0  0  0  0  0  0  0
    1.9131   -3.6878   31.6168 Cl  0  0  0  0  0  0  0  0  0  0  0  0
    0.5742   -3.2456   29.0677 S   0  0  0  0  0  0  0  0  0  0  0  0
    0.4458   -1.4704   29.0655 C   0  0  0  0  0  0  0  0  0  0  0  0
    1.3249   -0.5876   29.6997 C   0  0  0  0  0  0  0  0  0  0  0  0
    1.1842    0.7903   29.5449 C   0  0  0  0  0  0  0  0  0  0  0  0
    0.1617    1.2946   28.7526 C   0  0  0  0  0  0  0  0  0  0  0  0
   -0.7514    0.4278   28.1359 C   0  0  0  0  0  0  0  0  0  0  0  0
   -1.8622    1.0497   27.3543 C   0  0  0  0  0  0  0  0  0  0  0  0
   -2.3455    0.3032   26.2223 N   0  0  0  0  0  0  0  0  0  0  0  0
   -2.2056    2.1086   27.7939 O   0  0  0  0  0  0  0  0  0  0  0  0
   -0.6271   -0.9498   28.3302 C   0  0  0  0  0  0  0  0  0  0  0  0
    4.9518   -6.8036   25.9225 H   0  0  0  0  0  0  0  0  0  0  0  0
    3.6558   -7.9779   25.9932 H   0  0  0  0  0  0  0  0  0  0  0  0
    3.3140   -6.3419   25.4321 H   0  0  0  0  0  0  0  0  0  0  0  0
    4.2994   -6.9694   28.2488 H   0  0  0  0  0  0  0  0  0  0  0  0
    2.6294   -7.0608   27.7786 H   0  0  0  0  0  0  0  0  0  0  0  0
    8.8009   -7.3649   31.3451 H   0  0  0  0  0  0  0  0  0  0  0  0
    9.8073   -9.8067   31.1135 H   0  0  0  0  0  0  0  0  0  0  0  0
    9.3187  -10.8042   28.7250 H   0  0  0  0  0  0  0  0  0  0  0  0
    6.7230   -6.4201   27.1135 H   0  0  0  0  0  0  0  0  0  0  0  0
    3.4193   -2.4523   27.5053 H   0  0  0  0  0  0  0  0  0  0  0  0
    4.8580   -2.2739   28.5401 H   0  0  0  0  0  0  0  0  0  0  0  0
    6.3698   -2.5928   26.5774 H   0  0  0  0  0  0  0  0  0  0  0  0
    4.9818   -1.9245   25.6837 H   0  0  0  0  0  0  0  0  0  0  0  0
    5.5908   -4.7146   25.5576 H   0  0  0  0  0  0  0  0  0  0  0  0
    3.9070   -4.1315   25.4995 H   0  0  0  0  0  0  0  0  0  0  0  0
    4.5314   -4.6880   30.2864 H   0  0  0  0  0  0  0  0  0  0  0  0
    1.4112   -5.7138   30.3497 H   0  0  0  0  0  0  0  0  0  0  0  0
    2.9375   -2.7802   29.6933 H   0  0  0  0  0  0  0  0  0  0  0  0
    2.1358   -0.9287   30.3331 H   0  0  0  0  0  0  0  0  0  0  0  0
    1.8730    1.4723   30.0382 H   0  0  0  0  0  0  0  0  0  0  0  0
    0.0584    2.3735   28.6344 H   0  0  0  0  0  0  0  0  0  0  0  0
   -1.7254   -0.5277   26.0708 H   0  0  0  0  0  0  0  0  0  0  0  0
   -1.8857   -0.6359   26.2113 H   0  0  0  0  0  0  0  0  0  0  0  0
   -1.3678   -1.6378   27.9279 H   0  0  0  0  0  0  0  0  0  0  0  0
  1  2  1  0
  2  3  1  0
  3  4  1  0
  4  5  1  0
  5  6  2  0
  6  7  1  0
  7  8  2  0
  8  9  1  0
  9 10  2  0
 10 11  1  0
 11 12  2  0
 12 13  1  0
  8 14  1  0
  4 15  1  0
 15 16  1  0
 16 17  1  0
  3 18  1  0
 18 19  1  0
 18 20  1  0
 18 21  1  0
 21 22  1  0
 21 23  1  0
 23 24  1  0
 24 25  2  0
 25 26  1  0
 26 27  2  0
 27 28  1  0
 28 29  1  0
 29 30  1  0
 29 31  2  0
 28 32  2  0
 17  4  1  0
 32 24  1  0
 14  5  1  0
 13  9  1  0
  1 33  1  0
  1 34  1  0
  1 35  1  0
  2 36  1  0
  2 37  1  0
 10 38  1  0
 11 39  1  0
 12 40  1  0
 14 41  1  0
 15 42  1  0
 15 43  1  0
 16 44  1  0
 16 45  1  0
 17 46  1  0
 17 47  1  0
 19 48  1  0
 20 49  1  0
 21 50  1  0
 25 51  1  0
 26 52  1  0
 27 53  1  0
 30 54  1  0
 30 55  1  0
 32 56  1  0
M  END
>  <Energy>  (447) 
203.65197864626003

>  <compound_id>  (447) 
2615

>  <target_id>  (447) 
1

>  <reference_id>  (447) 
175

>  <inspiration_ids>  (447) 
[175, 186]

>  <energy_score>  (447) 
98.2177900475699

>  <distance_score>  (447) 
2.4963542566512484

>  <path>  (447) 
/opt/xchem-fragalysis-2/maxwin/BulkDock/SCRATCH/505736/C2615-P175/C2615-P175.minimised.mol

>  <scratch_subdir>  (447) 
/opt/xchem-fragalysis-2/maxwin/BulkDock/SCRATCH/505736/C2615-P175

>  <fragmenstein_runtime>  (447) 
21.273581981658936

>  <fragmenstein_outcome>  (447) 
too moved

>  <fragmenstein_mode>  (447) 
expansion

>  <fragmenstein_error>  (447) 


$$$$
C2615-P186
     RDKit          3D

 56 59  0  0  0  0  0  0  0  0999 V2000
    3.1499   -2.1388   27.2692 C   0  0  0  0  0  0  0  0  0  0  0  0
    4.1173   -3.2466   26.8673 C   0  0  0  0  0  0  0  0  0  0  0  0
    4.3877   -4.3330   27.8264 N   0  0  0  0  0  0  0  0  0  0  0  0
    5.3648   -5.3530   27.2934 C   0  0  0  0  0  0  0  0  0  0  0  0
    6.3026   -5.9367   28.4327 C   0  0  0  0  0  0  0  0  0  0  0  0
    6.1236   -5.7295   29.7189 N   0  0  0  0  0  0  0  0  0  0  0  0
    7.1352   -6.3740   30.3963 N   0  0  0  0  0  0  0  0  0  0  0  0
    7.8884   -6.9951   29.5131 C   0  0  0  0  0  0  0  0  0  0  0  0
    9.0356   -7.8003   29.7945 C   0  0  0  0  0  0  0  0  0  0  0  0
    9.6676   -7.9348   31.0154 C   0  0  0  0  0  0  0  0  0  0  0  0
   10.7899   -8.8134   30.9588 C   0  0  0  0  0  0  0  0  0  0  0  0
   10.9734   -9.3320   29.6967 C   0  0  0  0  0  0  0  0  0  0  0  0
    9.8033   -8.7542   28.5914 S   0  0  0  0  0  0  0  0  0  0  0  0
    7.4040   -6.7292   28.2652 N   0  0  0  0  0  0  0  0  0  0  0  0
    6.2194   -4.9088   26.0652 C   0  0  0  0  0  0  0  0  0  0  0  0
    5.9898   -6.3168   25.4655 C   0  0  0  0  0  0  0  0  0  0  0  0
    4.7240   -6.4060   26.3419 C   0  0  0  0  0  0  0  0  0  0  0  0
    3.1774   -4.9074   28.4457 C   0  0  0  0  0  0  0  0  0  0  0  0
    3.4142   -6.2417   28.8692 O   0  0  0  0  0  0  0  0  0  0  0  0
    2.2008   -5.0271   27.4305 O   0  0  0  0  0  0  0  0  0  0  0  0
    2.5453   -4.1261   29.6964 C   0  0  0  0  0  0  0  0  0  0  0  0
    3.6625   -3.9061   31.0751 Cl  0  0  0  0  0  0  0  0  0  0  0  0
    1.0373   -5.0304   30.3692 S   0  0  0  0  0  0  0  0  0  0  0  0
   -0.0763   -3.6583   30.4989 C   0  0  0  0  0  0  0  0  0  0  0  0
   -0.5033   -3.2096   31.7523 C   0  0  0  0  0  0  0  0  0  0  0  0
   -1.2880   -2.0627   31.8594 C   0  0  0  0  0  0  0  0  0  0  0  0
   -1.6449   -1.3679   30.7105 C   0  0  0  0  0  0  0  0  0  0  0  0
   -1.2642   -1.8550   29.4541 C   0  0  0  0  0  0  0  0  0  0  0  0
   -1.5590   -1.0489   28.2524 C   0  0  0  0  0  0  0  0  0  0  0  0
   -2.0865   -1.7784   27.1229 N   0  0  0  0  0  0  0  0  0  0  0  0
   -1.2587    0.1047   28.3654 O   0  0  0  0  0  0  0  0  0  0  0  0
   -0.4833   -2.9994   29.3420 C   0  0  0  0  0  0  0  0  0  0  0  0
    2.1138   -2.4819   27.3159 H   0  0  0  0  0  0  0  0  0  0  0  0
    3.4372   -1.6874   28.2237 H   0  0  0  0  0  0  0  0  0  0  0  0
    3.1790   -1.3415   26.5173 H   0  0  0  0  0  0  0  0  0  0  0  0
    5.0624   -2.7222   26.6810 H   0  0  0  0  0  0  0  0  0  0  0  0
    3.7614   -3.6496   25.9114 H   0  0  0  0  0  0  0  0  0  0  0  0
    9.3368   -7.4190   31.9103 H   0  0  0  0  0  0  0  0  0  0  0  0
   11.4254   -9.0530   31.8030 H   0  0  0  0  0  0  0  0  0  0  0  0
   11.7392  -10.0221   29.3690 H   0  0  0  0  0  0  0  0  0  0  0  0
    7.8194   -7.0402   27.4015 H   0  0  0  0  0  0  0  0  0  0  0  0
    5.8453   -4.1429   25.3838 H   0  0  0  0  0  0  0  0  0  0  0  0
    7.2547   -4.6519   26.3034 H   0  0  0  0  0  0  0  0  0  0  0  0
    6.7561   -7.0611   25.6968 H   0  0  0  0  0  0  0  0  0  0  0  0
    5.8324   -6.3649   24.3894 H   0  0  0  0  0  0  0  0  0  0  0  0
    4.5342   -7.3979   26.7594 H   0  0  0  0  0  0  0  0  0  0  0  0
    3.8248   -6.0862   25.8071 H   0  0  0  0  0  0  0  0  0  0  0  0
    4.2339   -6.1238   29.3926 H   0  0  0  0  0  0  0  0  0  0  0  0
    1.4617   -5.4984   27.8496 H   0  0  0  0  0  0  0  0  0  0  0  0
    2.2297   -3.1286   29.4038 H   0  0  0  0  0  0  0  0  0  0  0  0
   -0.1887   -3.7221   32.6604 H   0  0  0  0  0  0  0  0  0  0  0  0
   -1.5815   -1.6946   32.8399 H   0  0  0  0  0  0  0  0  0  0  0  0
   -2.1981   -0.4340   30.7864 H   0  0  0  0  0  0  0  0  0  0  0  0
   -2.1171   -2.7982   27.3585 H   0  0  0  0  0  0  0  0  0  0  0  0
   -2.3401   -2.7485   27.4300 H   0  0  0  0  0  0  0  0  0  0  0  0
   -0.1286   -3.3242   28.3666 H   0  0  0  0  0  0  0  0  0  0  0  0
  1  2  1  0
  2  3  1  0
  3  4  1  0
  4  5  1  0
  5  6  2  0
  6  7  1  0
  7  8  2  0
  8  9  1  0
  9 10  2  0
 10 11  1  0
 11 12  2  0
 12 13  1  0
  8 14  1  0
  4 15  1  0
 15 16  1  0
 16 17  1  0
  3 18  1  0
 18 19  1  0
 18 20  1  0
 18 21  1  0
 21 22  1  0
 21 23  1  0
 23 24  1  0
 24 25  2  0
 25 26  1  0
 26 27  2  0
 27 28  1  0
 28 29  1  0
 29 30  1  0
 29 31  2  0
 28 32  2  0
 17  4  1  0
 32 24  1  0
 14  5  1  0
 13  9  1  0
  1 33  1  0
  1 34  1  0
  1 35  1  0
  2 36  1  0
  2 37  1  0
 10 38  1  0
 11 39  1  0
 12 40  1  0
 14 41  1  0
 15 42  1  0
 15 43  1  0
 16 44  1  0
 16 45  1  0
 17 46  1  0
 17 47  1  0
 19 48  1  0
 20 49  1  0
 21 50  1  0
 25 51  1  0
 26 52  1  0
 27 53  1  0
 30 54  1  0
 30 55  1  0
 32 56  1  0
M  END
>  <Energy>  (448) 
203.49724938650758

>  <compound_id>  (448) 
2615

>  <target_id>  (448) 
1

>  <reference_id>  (448) 
186

>  <inspiration_ids>  (448) 
[175, 186]

>  <energy_score>  (448) 
98.06306078781688

>  <distance_score>  (448) 
2.906791589518906

>  <path>  (448) 
/opt/xchem-fragalysis-2/maxwin/BulkDock/SCRATCH/505736/C2615-P186/C2615-P186.minimised.mol

>  <scratch_subdir>  (448) 
/opt/xchem-fragalysis-2/maxwin/BulkDock/SCRATCH/505736/C2615-P186

>  <fragmenstein_runtime>  (448) 
21.974432706832886

>  <fragmenstein_outcome>  (448) 
too moved

>  <fragmenstein_mode>  (448) 
expansion

>  <fragmenstein_error>  (448) 


$$$$
C2615-P175
     RDKit          3D

 56 59  0  0  0  0  0  0  0  0999 V2000
    3.8603   -6.6875   26.2729 C   0  0  0  0  0  0  0  0  0  0  0  0
    3.6020   -6.3035   27.7200 C   0  0  0  0  0  0  0  0  0  0  0  0
    3.7964   -4.8920   28.1020 N   0  0  0  0  0  0  0  0  0  0  0  0
    5.2274   -4.4982   27.9521 C   0  0  0  0  0  0  0  0  0  0  0  0
    6.2602   -5.3819   28.7369 C   0  0  0  0  0  0  0  0  0  0  0  0
    6.4698   -5.2366   30.0261 N   0  0  0  0  0  0  0  0  0  0  0  0
    7.2554   -6.2722   30.4448 N   0  0  0  0  0  0  0  0  0  0  0  0
    7.5006   -7.0477   29.4092 C   0  0  0  0  0  0  0  0  0  0  0  0
    8.1392   -8.3228   29.4998 C   0  0  0  0  0  0  0  0  0  0  0  0
    8.7250   -8.8479   30.6372 C   0  0  0  0  0  0  0  0  0  0  0  0
    9.1751  -10.1845   30.4559 C   0  0  0  0  0  0  0  0  0  0  0  0
    8.9218  -10.6348   29.1817 C   0  0  0  0  0  0  0  0  0  0  0  0
    8.1998   -9.4345   28.2012 S   0  0  0  0  0  0  0  0  0  0  0  0
    6.9617   -6.4702   28.2887 N   0  0  0  0  0  0  0  0  0  0  0  0
    5.3995   -2.9607   28.1132 C   0  0  0  0  0  0  0  0  0  0  0  0
    6.3450   -2.9943   26.8985 C   0  0  0  0  0  0  0  0  0  0  0  0
    5.5734   -4.2440   26.4444 C   0  0  0  0  0  0  0  0  0  0  0  0
    3.1548   -4.6094   29.4355 C   0  0  0  0  0  0  0  0  0  0  0  0
    4.0284   -4.1907   30.4585 O   0  0  0  0  0  0  0  0  0  0  0  0
    2.6357   -5.8181   29.9952 O   0  0  0  0  0  0  0  0  0  0  0  0
    1.9571   -3.5412   29.3154 C   0  0  0  0  0  0  0  0  0  0  0  0
    2.4874   -1.8709   29.7571 Cl  0  0  0  0  0  0  0  0  0  0  0  0
    0.4929   -3.9833   30.4169 S   0  0  0  0  0  0  0  0  0  0  0  0
   -0.5389   -2.5527   30.1911 C   0  0  0  0  0  0  0  0  0  0  0  0
   -0.8726   -2.0793   28.9194 C   0  0  0  0  0  0  0  0  0  0  0  0
   -1.5694   -0.8844   28.7688 C   0  0  0  0  0  0  0  0  0  0  0  0
   -1.9550   -0.1681   29.8971 C   0  0  0  0  0  0  0  0  0  0  0  0
   -1.6676   -0.6656   31.1680 C   0  0  0  0  0  0  0  0  0  0  0  0
   -2.0916    0.0925   32.3694 C   0  0  0  0  0  0  0  0  0  0  0  0
   -0.9801    0.6409   33.1033 N   0  0  0  0  0  0  0  0  0  0  0  0
   -3.2706    0.1626   32.5697 O   0  0  0  0  0  0  0  0  0  0  0  0
   -0.9653   -1.8590   31.3240 C   0  0  0  0  0  0  0  0  0  0  0  0
    4.9251   -6.7530   26.0433 H   0  0  0  0  0  0  0  0  0  0  0  0
    3.3851   -5.9816   25.5896 H   0  0  0  0  0  0  0  0  0  0  0  0
    3.4467   -7.6824   26.0747 H   0  0  0  0  0  0  0  0  0  0  0  0
    2.5588   -6.5728   27.8822 H   0  0  0  0  0  0  0  0  0  0  0  0
    4.1923   -6.9573   28.3670 H   0  0  0  0  0  0  0  0  0  0  0  0
    8.7942   -8.3034   31.5728 H   0  0  0  0  0  0  0  0  0  0  0  0
    9.6359  -10.7918   31.2259 H   0  0  0  0  0  0  0  0  0  0  0  0
    9.1254  -11.6176   28.7856 H   0  0  0  0  0  0  0  0  0  0  0  0
    6.9834   -6.8469   27.3523 H   0  0  0  0  0  0  0  0  0  0  0  0
    5.8527   -2.6018   29.0416 H   0  0  0  0  0  0  0  0  0  0  0  0
    4.5101   -2.3576   27.9013 H   0  0  0  0  0  0  0  0  0  0  0  0
    6.2885   -2.1297   26.2332 H   0  0  0  0  0  0  0  0  0  0  0  0
    7.3951   -3.1805   27.1507 H   0  0  0  0  0  0  0  0  0  0  0  0
    4.7225   -3.9927   25.7982 H   0  0  0  0  0  0  0  0  0  0  0  0
    6.1999   -4.9757   25.9273 H   0  0  0  0  0  0  0  0  0  0  0  0
    4.8021   -4.7812   30.4509 H   0  0  0  0  0  0  0  0  0  0  0  0
    2.0762   -5.5061   30.7316 H   0  0  0  0  0  0  0  0  0  0  0  0
    1.5897   -3.5209   28.2846 H   0  0  0  0  0  0  0  0  0  0  0  0
   -0.5931   -2.6256   28.0242 H   0  0  0  0  0  0  0  0  0  0  0  0
   -1.8207   -0.5264   27.7714 H   0  0  0  0  0  0  0  0  0  0  0  0
   -2.5028    0.7581   29.7713 H   0  0  0  0  0  0  0  0  0  0  0  0
   -0.1048    0.4743   32.5672 H   0  0  0  0  0  0  0  0  0  0  0  0
   -0.0946    0.2765   32.6994 H   0  0  0  0  0  0  0  0  0  0  0  0
   -0.7465   -2.2358   32.3208 H   0  0  0  0  0  0  0  0  0  0  0  0
  1  2  1  0
  2  3  1  0
  3  4  1  0
  4  5  1  0
  5  6  2  0
  6  7  1  0
  7  8  2  0
  8  9  1  0
  9 10  2  0
 10 11  1  0
 11 12  2  0
 12 13  1  0
  8 14  1  0
  4 15  1  0
 15 16  1  0
 16 17  1  0
  3 18  1  0
 18 19  1  0
 18 20  1  0
 18 21  1  0
 21 22  1  0
 21 23  1  0
 23 24  1  0
 24 25  2  0
 25 26  1  0
 26 27  2  0
 27 28  1  0
 28 29  1  0
 29 30  1  0
 29 31  2  0
 28 32  2  0
 17  4  1  0
 32 24  1  0
 14  5  1  0
 13  9  1  0
  1 33  1  0
  1 34  1  0
  1 35  1  0
  2 36  1  0
  2 37  1  0
 10 38  1  0
 11 39  1  0
 12 40  1  0
 14 41  1  0
 15 42  1  0
 15 43  1  0
 16 44  1  0
 16 45  1  0
 17 46  1  0
 17 47  1  0
 19 48  1  0
 20 49  1  0
 21 50  1  0
 25 51  1  0
 26 52  1  0
 27 53  1  0
 30 54  1  0
 30 55  1  0
 32 56  1  0
M  END
>  <Energy>  (449) 
198.73363682919862

>  <compound_id>  (449) 
2615

>  <target_id>  (449) 
1

>  <reference_id>  (449) 
175

>  <inspiration_ids>  (449) 
[175, 187]

>  <energy_score>  (449) 
93.29944823050869

>  <distance_score>  (449) 
2.646669298238537

>  <path>  (449) 
/opt/xchem-fragalysis-2/maxwin/BulkDock/SCRATCH/505736/C2615-P175/C2615-P175.minimised.mol

>  <scratch_subdir>  (449) 
/opt/xchem-fragalysis-2/maxwin/BulkDock/SCRATCH/505736/C2615-P175

>  <fragmenstein_runtime>  (449) 
23.86904215812683

>  <fragmenstein_outcome>  (449) 
too moved

>  <fragmenstein_mode>  (449) 
expansion

>  <fragmenstein_error>  (449) 


$$$$
C2615-P187
     RDKit          3D

 56 59  0  0  0  0  0  0  0  0999 V2000
    3.3383   -6.3560   26.8668 C   0  0  0  0  0  0  0  0  0  0  0  0
    3.1078   -5.7120   28.2281 C   0  0  0  0  0  0  0  0  0  0  0  0
    3.3140   -4.2620   28.1639 N   0  0  0  0  0  0  0  0  0  0  0  0
    4.7448   -3.8709   28.1169 C   0  0  0  0  0  0  0  0  0  0  0  0
    5.7619   -4.8202   28.8619 C   0  0  0  0  0  0  0  0  0  0  0  0
    5.8901   -4.8697   30.1683 N   0  0  0  0  0  0  0  0  0  0  0  0
    6.8178   -5.8432   30.4607 N   0  0  0  0  0  0  0  0  0  0  0  0
    7.2282   -6.3790   29.3295 C   0  0  0  0  0  0  0  0  0  0  0  0
    8.1285   -7.4859   29.2190 C   0  0  0  0  0  0  0  0  0  0  0  0
    8.7242   -8.1596   30.2690 C   0  0  0  0  0  0  0  0  0  0  0  0
    9.5664   -9.2221   29.8331 C   0  0  0  0  0  0  0  0  0  0  0  0
    9.5906   -9.3246   28.4609 C   0  0  0  0  0  0  0  0  0  0  0  0
    8.5806   -8.1663   27.7122 S   0  0  0  0  0  0  0  0  0  0  0  0
    6.6259   -5.7200   28.2923 N   0  0  0  0  0  0  0  0  0  0  0  0
    5.0931   -2.3700   28.3188 C   0  0  0  0  0  0  0  0  0  0  0  0
    5.9670   -2.4579   27.0460 C   0  0  0  0  0  0  0  0  0  0  0  0
    5.0822   -3.6333   26.6016 C   0  0  0  0  0  0  0  0  0  0  0  0
    2.2691   -3.4498   28.7984 C   0  0  0  0  0  0  0  0  0  0  0  0
    1.0196   -4.0301   28.4269 O   0  0  0  0  0  0  0  0  0  0  0  0
    2.2153   -2.2243   28.1075 O   0  0  0  0  0  0  0  0  0  0  0  0
    2.2347   -3.1359   30.3566 C   0  0  0  0  0  0  0  0  0  0  0  0
    2.4823   -4.6188   31.3561 Cl  0  0  0  0  0  0  0  0  0  0  0  0
    0.5422   -2.4847   30.9611 S   0  0  0  0  0  0  0  0  0  0  0  0
    0.3016   -0.9966   30.0083 C   0  0  0  0  0  0  0  0  0  0  0  0
   -0.7520   -0.9328   29.0860 C   0  0  0  0  0  0  0  0  0  0  0  0
   -0.9563    0.2166   28.3168 C   0  0  0  0  0  0  0  0  0  0  0  0
   -0.1298    1.3285   28.4834 C   0  0  0  0  0  0  0  0  0  0  0  0
    0.8915    1.2916   29.4396 C   0  0  0  0  0  0  0  0  0  0  0  0
    1.8313    2.4395   29.6339 C   0  0  0  0  0  0  0  0  0  0  0  0
    1.1978    3.7331   29.7453 N   0  0  0  0  0  0  0  0  0  0  0  0
    2.9887    2.1309   29.6725 O   0  0  0  0  0  0  0  0  0  0  0  0
    1.1106    0.1258   30.1930 C   0  0  0  0  0  0  0  0  0  0  0  0
    2.8333   -5.7933   26.0778 H   0  0  0  0  0  0  0  0  0  0  0  0
    2.9445   -7.3757   26.8518 H   0  0  0  0  0  0  0  0  0  0  0  0
    4.3997   -6.4169   26.6145 H   0  0  0  0  0  0  0  0  0  0  0  0
    2.0955   -5.9776   28.5416 H   0  0  0  0  0  0  0  0  0  0  0  0
    3.7315   -6.1992   28.9806 H   0  0  0  0  0  0  0  0  0  0  0  0
    8.5603   -7.8999   31.3091 H   0  0  0  0  0  0  0  0  0  0  0  0
   10.1198   -9.8820   30.4922 H   0  0  0  0  0  0  0  0  0  0  0  0
   10.1425  -10.0375   27.8637 H   0  0  0  0  0  0  0  0  0  0  0  0
    6.7730   -5.8985   27.3091 H   0  0  0  0  0  0  0  0  0  0  0  0
    5.6497   -2.1259   29.2306 H   0  0  0  0  0  0  0  0  0  0  0  0
    4.3242   -1.6058   28.2091 H   0  0  0  0  0  0  0  0  0  0  0  0
    5.9441   -1.5785   26.3977 H   0  0  0  0  0  0  0  0  0  0  0  0
    7.0116   -2.7291   27.2362 H   0  0  0  0  0  0  0  0  0  0  0  0
    4.2406   -3.3095   25.9761 H   0  0  0  0  0  0  0  0  0  0  0  0
    5.6085   -4.4235   26.0594 H   0  0  0  0  0  0  0  0  0  0  0  0
    0.3471   -3.4736   28.8560 H   0  0  0  0  0  0  0  0  0  0  0  0
    2.4971   -2.4679   27.2154 H   0  0  0  0  0  0  0  0  0  0  0  0
    3.0073   -2.4123   30.6332 H   0  0  0  0  0  0  0  0  0  0  0  0
   -1.4089   -1.7859   28.9212 H   0  0  0  0  0  0  0  0  0  0  0  0
   -1.7431    0.2246   27.5635 H   0  0  0  0  0  0  0  0  0  0  0  0
   -0.2658    2.1883   27.8321 H   0  0  0  0  0  0  0  0  0  0  0  0
    0.1687    3.6040   29.7837 H   0  0  0  0  0  0  0  0  0  0  0  0
    0.1847    3.6319   29.5483 H   0  0  0  0  0  0  0  0  0  0  0  0
    1.9300    0.1056   30.9094 H   0  0  0  0  0  0  0  0  0  0  0  0
  1  2  1  0
  2  3  1  0
  3  4  1  0
  4  5  1  0
  5  6  2  0
  6  7  1  0
  7  8  2  0
  8  9  1  0
  9 10  2  0
 10 11  1  0
 11 12  2  0
 12 13  1  0
  8 14  1  0
  4 15  1  0
 15 16  1  0
 16 17  1  0
  3 18  1  0
 18 19  1  0
 18 20  1  0
 18 21  1  0
 21 22  1  0
 21 23  1  0
 23 24  1  0
 24 25  2  0
 25 26  1  0
 26 27  2  0
 27 28  1  0
 28 29  1  0
 29 30  1  0
 29 31  2  0
 28 32  2  0
 17  4  1  0
 32 24  1  0
 14  5  1  0
 13  9  1  0
  1 33  1  0
  1 34  1  0
  1 35  1  0
  2 36  1  0
  2 37  1  0
 10 38  1  0
 11 39  1  0
 12 40  1  0
 14 41  1  0
 15 42  1  0
 15 43  1  0
 16 44  1  0
 16 45  1  0
 17 46  1  0
 17 47  1  0
 19 48  1  0
 20 49  1  0
 21 50  1  0
 25 51  1  0
 26 52  1  0
 27 53  1  0
 30 54  1  0
 30 55  1  0
 32 56  1  0
M  END
>  <Energy>  (450) 
199.72479961997323

>  <compound_id>  (450) 
2615

>  <target_id>  (450) 
1

>  <reference_id>  (450) 
187

>  <inspiration_ids>  (450) 
[175, 187]

>  <energy_score>  (450) 
94.29061102128185

>  <distance_score>  (450) 
2.708331177660888

>  <path>  (450) 
/opt/xchem-fragalysis-2/maxwin/BulkDock/SCRATCH/505736/C2615-P187/C2615-P187.minimised.mol

>  <scratch_subdir>  (450) 
/opt/xchem-fragalysis-2/maxwin/BulkDock/SCRATCH/505736/C2615-P187

>  <fragmenstein_runtime>  (450) 
22.766995191574097

>  <fragmenstein_outcome>  (450) 
too moved

>  <fragmenstein_mode>  (450) 
expansion

>  <fragmenstein_error>  (450) 


$$$$
C2616-P175
     RDKit          3D

 74 78  0  0  0  0  0  0  0  0999 V2000
    0.2709   -6.4387   35.5812 C   0  0  0  0  0  0  0  0  0  0  0  0
    0.0271   -6.2826   34.1103 C   0  0  0  0  0  0  0  0  0  0  0  0
   -0.7444   -7.1950   33.4342 C   0  0  0  0  0  0  0  0  0  0  0  0
   -0.9067   -6.9553   32.0922 C   0  0  0  0  0  0  0  0  0  0  0  0
   -1.6560   -7.8208   31.3347 O   0  0  0  0  0  0  0  0  0  0  0  0
   -0.3912   -5.9003   31.4344 N   0  0  0  0  0  0  0  0  0  0  0  0
    0.3429   -5.0505   32.1743 C   0  0  0  0  0  0  0  0  0  0  0  0
    0.9985   -3.8327   31.5609 C   0  0  0  0  0  0  0  0  0  0  0  0
    0.3129   -3.0741   30.4055 C   0  0  0  0  0  0  0  0  0  0  0  0
    0.1275   -3.7726   29.0207 C   0  0  0  0  0  0  0  0  0  0  0  0
    1.1584   -3.7886   27.9329 N   0  0  0  0  0  0  0  0  0  0  0  0
    2.5055   -4.2393   28.2726 C   0  0  0  0  0  0  0  0  0  0  0  0
    3.4945   -2.9114   28.9784 S   0  0  0  0  0  0  0  0  0  0  0  0
    2.4456   -5.6764   29.3465 Cl  0  0  0  0  0  0  0  0  0  0  0  0
    3.2487   -4.8582   26.9882 C   0  0  0  0  0  0  0  0  0  0  0  0
    2.6671   -4.9957   25.9467 O   0  0  0  0  0  0  0  0  0  0  0  0
    4.5847   -5.2549   27.3839 N   0  0  0  0  0  0  0  0  0  0  0  0
    5.5998   -6.0241   26.6831 C   0  0  0  0  0  0  0  0  0  0  0  0
    6.4469   -6.6745   27.8410 C   0  0  0  0  0  0  0  0  0  0  0  0
    6.4204   -6.1914   29.0684 N   0  0  0  0  0  0  0  0  0  0  0  0
    7.1713   -7.0142   29.8585 N   0  0  0  0  0  0  0  0  0  0  0  0
    7.6153   -8.0034   29.1123 C   0  0  0  0  0  0  0  0  0  0  0  0
    8.3544   -9.1206   29.6031 C   0  0  0  0  0  0  0  0  0  0  0  0
    8.8459   -9.2738   30.8852 C   0  0  0  0  0  0  0  0  0  0  0  0
    9.5105  -10.5193   31.0709 C   0  0  0  0  0  0  0  0  0  0  0  0
    9.5021  -11.2781   29.9232 C   0  0  0  0  0  0  0  0  0  0  0  0
    8.7029  -10.4837   28.6357 S   0  0  0  0  0  0  0  0  0  0  0  0
    7.2140   -7.8022   27.8179 N   0  0  0  0  0  0  0  0  0  0  0  0
    6.4208   -5.2469   25.6472 C   0  0  0  0  0  0  0  0  0  0  0  0
    6.4400   -6.5301   24.7897 C   0  0  0  0  0  0  0  0  0  0  0  0
    5.1759   -6.9860   25.5546 C   0  0  0  0  0  0  0  0  0  0  0  0
   -1.0385   -2.5960   30.8663 N   0  0  0  0  0  0  0  0  0  0  0  0
   -1.1219   -1.0025   31.3741 S   0  0  0  0  0  0  0  0  0  0  0  0
   -2.5104   -0.7026   31.6238 O   0  0  0  0  0  0  0  0  0  0  0  0
   -0.1152   -0.8323   32.3913 O   0  0  0  0  0  0  0  0  0  0  0  0
   -0.6191   -0.2773   29.9616 N   0  0  0  0  0  0  0  0  0  0  0  0
   -1.6370   -0.1833   28.8818 C   0  0  0  0  0  0  0  0  0  0  0  0
   -0.9603    0.2037   27.5731 C   0  0  0  0  0  0  0  0  0  0  0  0
   -0.2700    1.4561   27.7079 O   0  0  0  0  0  0  0  0  0  0  0  0
    0.7561    1.3449   28.7039 C   0  0  0  0  0  0  0  0  0  0  0  0
    0.1839    0.9644   30.0759 C   0  0  0  0  0  0  0  0  0  0  0  0
    0.5867   -5.2262   33.4900 N   0  0  0  0  0  0  0  0  0  0  0  0
    0.9054   -5.6305   35.9587 H   0  0  0  0  0  0  0  0  0  0  0  0
    0.7739   -7.3899   35.7822 H   0  0  0  0  0  0  0  0  0  0  0  0
   -0.6778   -6.4112   36.1265 H   0  0  0  0  0  0  0  0  0  0  0  0
   -1.1835   -8.0418   33.9416 H   0  0  0  0  0  0  0  0  0  0  0  0
   -2.0840   -8.4394   31.9555 H   0  0  0  0  0  0  0  0  0  0  0  0
    1.1059   -3.1120   32.3840 H   0  0  0  0  0  0  0  0  0  0  0  0
    2.0294   -4.0868   31.3188 H   0  0  0  0  0  0  0  0  0  0  0  0
    0.9338   -2.1950   30.2031 H   0  0  0  0  0  0  0  0  0  0  0  0
   -0.7271   -3.2824   28.5366 H   0  0  0  0  0  0  0  0  0  0  0  0
   -0.2229   -4.7902   29.2023 H   0  0  0  0  0  0  0  0  0  0  0  0
    0.8023   -4.4606   27.2536 H   0  0  0  0  0  0  0  0  0  0  0  0
    4.1725   -3.6678   29.8521 H   0  0  0  0  0  0  0  0  0  0  0  0
    4.7131   -5.0494   28.3736 H   0  0  0  0  0  0  0  0  0  0  0  0
    8.7265   -8.5239   31.6595 H   0  0  0  0  0  0  0  0  0  0  0  0
    9.9644  -10.8440   31.9995 H   0  0  0  0  0  0  0  0  0  0  0  0
    9.9229  -12.2650   29.7838 H   0  0  0  0  0  0  0  0  0  0  0  0
    7.4049   -8.4049   27.0308 H   0  0  0  0  0  0  0  0  0  0  0  0
    5.8905   -4.4106   25.1776 H   0  0  0  0  0  0  0  0  0  0  0  0
    7.3933   -4.8945   25.9980 H   0  0  0  0  0  0  0  0  0  0  0  0
    6.3263   -6.3882   23.7152 H   0  0  0  0  0  0  0  0  0  0  0  0
    7.3179   -7.1635   24.9595 H   0  0  0  0  0  0  0  0  0  0  0  0
    4.2457   -6.7311   25.0412 H   0  0  0  0  0  0  0  0  0  0  0  0
    5.1399   -8.0520   25.7967 H   0  0  0  0  0  0  0  0  0  0  0  0
   -1.4719   -3.1986   31.5642 H   0  0  0  0  0  0  0  0  0  0  0  0
   -2.3579    0.5897   29.1636 H   0  0  0  0  0  0  0  0  0  0  0  0
   -2.1493   -1.1395   28.7486 H   0  0  0  0  0  0  0  0  0  0  0  0
   -1.7079    0.3180   26.7829 H   0  0  0  0  0  0  0  0  0  0  0  0
   -0.2408   -0.5640   27.2737 H   0  0  0  0  0  0  0  0  0  0  0  0
    1.2623    2.3132   28.7693 H   0  0  0  0  0  0  0  0  0  0  0  0
    1.4954    0.6065   28.3702 H   0  0  0  0  0  0  0  0  0  0  0  0
   -0.4459    1.7701   30.4554 H   0  0  0  0  0  0  0  0  0  0  0  0
    1.0185    0.8169   30.7684 H   0  0  0  0  0  0  0  0  0  0  0  0
  1  2  1  0
  2  3  2  0
  3  4  1  0
  4  5  1  0
  4  6  2  0
  6  7  1  0
  7  8  1  0
  8  9  1  0
  9 10  1  0
 10 11  1  0
 11 12  1  0
 12 13  1  0
 12 14  1  0
 12 15  1  0
 15 16  2  0
 15 17  1  0
 17 18  1  0
 18 19  1  0
 19 20  2  0
 20 21  1  0
 21 22  2  0
 22 23  1  0
 23 24  2  0
 24 25  1  0
 25 26  2  0
 26 27  1  0
 22 28  1  0
 18 29  1  0
 29 30  1  0
 30 31  1  0
  9 32  1  0
 32 33  1  0
 33 34  2  0
 33 35  2  0
 33 36  1  0
 36 37  1  0
 37 38  1  0
 38 39  1  0
 39 40  1  0
 40 41  1  0
  7 42  2  0
 42  2  1  0
 31 18  1  0
 41 36  1  0
 28 19  1  0
 27 23  1  0
  1 43  1  0
  1 44  1  0
  1 45  1  0
  3 46  1  0
  5 47  1  0
  8 48  1  0
  8 49  1  0
  9 50  1  0
 10 51  1  0
 10 52  1  0
 11 53  1  0
 13 54  1  0
 17 55  1  0
 24 56  1  0
 25 57  1  0
 26 58  1  0
 28 59  1  0
 29 60  1  0
 29 61  1  0
 30 62  1  0
 30 63  1  0
 31 64  1  0
 31 65  1  0
 32 66  1  0
 37 67  1  0
 37 68  1  0
 38 69  1  0
 38 70  1  0
 40 71  1  0
 40 72  1  0
 41 73  1  0
 41 74  1  0
M  END
>  <Energy>  (451) 
-91.681474742446596

>  <compound_id>  (451) 
2616

>  <target_id>  (451) 
1

>  <reference_id>  (451) 
175

>  <inspiration_ids>  (451) 
[175, 188]

>  <energy_score>  (451) 
-98.8859238453366

>  <distance_score>  (451) 
4.758287164825254

>  <path>  (451) 
/opt/xchem-fragalysis-2/maxwin/BulkDock/SCRATCH/505736/C2616-P175/C2616-P175.minimised.mol

>  <scratch_subdir>  (451) 
/opt/xchem-fragalysis-2/maxwin/BulkDock/SCRATCH/505736/C2616-P175

>  <fragmenstein_runtime>  (451) 
80.55712461471558

>  <fragmenstein_outcome>  (451) 
too moved

>  <fragmenstein_mode>  (451) 
expansion

>  <fragmenstein_error>  (451) 


$$$$
C2616-P188
     RDKit          3D

 74 78  0  0  0  0  0  0  0  0999 V2000
    2.8468   -3.2388   31.5012 C   0  0  0  0  0  0  0  0  0  0  0  0
    1.4783   -3.6935   31.0949 C   0  0  0  0  0  0  0  0  0  0  0  0
    0.7279   -4.4858   31.9259 C   0  0  0  0  0  0  0  0  0  0  0  0
   -0.5353   -4.7457   31.4718 C   0  0  0  0  0  0  0  0  0  0  0  0
   -1.3744   -5.5497   32.1850 O   0  0  0  0  0  0  0  0  0  0  0  0
   -1.0652   -4.2562   30.3335 N   0  0  0  0  0  0  0  0  0  0  0  0
   -0.2547   -3.5352   29.5497 C   0  0  0  0  0  0  0  0  0  0  0  0
   -0.6753   -3.2184   28.1163 C   0  0  0  0  0  0  0  0  0  0  0  0
   -1.5888   -2.0135   27.5095 C   0  0  0  0  0  0  0  0  0  0  0  0
   -2.7443   -2.2351   26.0196 C   0  0  0  0  0  0  0  0  0  0  0  0
   -2.5430   -3.0665   24.3419 N   0  0  0  0  0  0  0  0  0  0  0  0
   -0.9991   -4.1345   23.9291 C   0  0  0  0  0  0  0  0  0  0  0  0
   -1.9735   -5.4627   24.2868 S   0  0  0  0  0  0  0  0  0  0  0  0
    0.7337   -3.2601   22.8169 Cl  0  0  0  0  0  0  0  0  0  0  0  0
    0.5033   -5.1798   24.2954 C   0  0  0  0  0  0  0  0  0  0  0  0
    0.8499   -5.7211   23.2884 O   0  0  0  0  0  0  0  0  0  0  0  0
    1.5048   -5.3172   25.8781 N   0  0  0  0  0  0  0  0  0  0  0  0
    2.9466   -6.0077   26.1766 C   0  0  0  0  0  0  0  0  0  0  0  0
    3.4053   -6.0739   27.7449 C   0  0  0  0  0  0  0  0  0  0  0  0
    3.2130   -5.1377   28.6465 N   0  0  0  0  0  0  0  0  0  0  0  0
    4.3886   -5.0307   29.4037 N   0  0  0  0  0  0  0  0  0  0  0  0
    5.2518   -5.9253   28.9695 C   0  0  0  0  0  0  0  0  0  0  0  0
    6.5929   -6.2067   29.4034 C   0  0  0  0  0  0  0  0  0  0  0  0
    7.3229   -5.5612   30.3806 C   0  0  0  0  0  0  0  0  0  0  0  0
    8.5816   -6.1898   30.6324 C   0  0  0  0  0  0  0  0  0  0  0  0
    8.7885   -7.2850   29.8247 C   0  0  0  0  0  0  0  0  0  0  0  0
    7.4834   -7.5383   28.7545 S   0  0  0  0  0  0  0  0  0  0  0  0
    4.5996   -6.6966   28.0629 N   0  0  0  0  0  0  0  0  0  0  0  0
    4.1776   -5.1768   25.6802 C   0  0  0  0  0  0  0  0  0  0  0  0
    4.8125   -6.5034   25.1515 C   0  0  0  0  0  0  0  0  0  0  0  0
    3.4710   -7.2391   25.3979 C   0  0  0  0  0  0  0  0  0  0  0  0
   -2.1578   -1.3230   28.7179 N   0  0  0  0  0  0  0  0  0  0  0  0
   -1.1246   -0.1733   29.4136 S   0  0  0  0  0  0  0  0  0  0  0  0
    0.2222   -0.6759   29.3576 O   0  0  0  0  0  0  0  0  0  0  0  0
   -1.4393    1.1205   28.8728 O   0  0  0  0  0  0  0  0  0  0  0  0
   -1.5743   -0.1506   31.0579 N   0  0  0  0  0  0  0  0  0  0  0  0
   -0.4953    0.5953   31.8307 C   0  0  0  0  0  0  0  0  0  0  0  0
   -0.8724    0.7195   33.3061 C   0  0  0  0  0  0  0  0  0  0  0  0
   -1.0925   -0.5637   33.8983 O   0  0  0  0  0  0  0  0  0  0  0  0
   -2.1493   -1.2387   33.2090 C   0  0  0  0  0  0  0  0  0  0  0  0
   -1.7675   -1.4572   31.7471 C   0  0  0  0  0  0  0  0  0  0  0  0
    1.0112   -3.2615   29.9038 N   0  0  0  0  0  0  0  0  0  0  0  0
    3.4601   -4.0910   31.8091 H   0  0  0  0  0  0  0  0  0  0  0  0
    2.7713   -2.5363   32.3372 H   0  0  0  0  0  0  0  0  0  0  0  0
    3.3517   -2.7292   30.6745 H   0  0  0  0  0  0  0  0  0  0  0  0
    1.1119   -4.8544   32.8647 H   0  0  0  0  0  0  0  0  0  0  0  0
   -1.0080   -5.6647   33.0772 H   0  0  0  0  0  0  0  0  0  0  0  0
    0.3082   -3.0625   27.6746 H   0  0  0  0  0  0  0  0  0  0  0  0
   -1.0659   -4.1547   27.7547 H   0  0  0  0  0  0  0  0  0  0  0  0
   -0.8922   -1.2577   27.1262 H   0  0  0  0  0  0  0  0  0  0  0  0
   -3.7205   -2.5283   26.3304 H   0  0  0  0  0  0  0  0  0  0  0  0
   -2.8416   -1.1986   25.6784 H   0  0  0  0  0  0  0  0  0  0  0  0
   -3.1723   -3.8314   24.4755 H   0  0  0  0  0  0  0  0  0  0  0  0
   -2.9899   -5.3804   23.4832 H   0  0  0  0  0  0  0  0  0  0  0  0
    0.9658   -4.8449   26.6895 H   0  0  0  0  0  0  0  0  0  0  0  0
    6.9588   -4.6895   30.9132 H   0  0  0  0  0  0  0  0  0  0  0  0
    9.2985   -5.8510   31.3711 H   0  0  0  0  0  0  0  0  0  0  0  0
    9.6492   -7.9407   29.8061 H   0  0  0  0  0  0  0  0  0  0  0  0
    5.0729   -7.4071   27.5288 H   0  0  0  0  0  0  0  0  0  0  0  0
    4.8421   -4.6850   26.4064 H   0  0  0  0  0  0  0  0  0  0  0  0
    3.8348   -4.3146   25.1261 H   0  0  0  0  0  0  0  0  0  0  0  0
    5.2101   -6.5442   24.1425 H   0  0  0  0  0  0  0  0  0  0  0  0
    5.6527   -6.8665   25.7531 H   0  0  0  0  0  0  0  0  0  0  0  0
    3.5589   -8.1565   25.9857 H   0  0  0  0  0  0  0  0  0  0  0  0
    2.9472   -7.5530   24.4997 H   0  0  0  0  0  0  0  0  0  0  0  0
   -2.3118   -2.0630   29.3899 H   0  0  0  0  0  0  0  0  0  0  0  0
   -0.3282    1.5873   31.4058 H   0  0  0  0  0  0  0  0  0  0  0  0
    0.4451    0.0323   31.7679 H   0  0  0  0  0  0  0  0  0  0  0  0
   -1.7764    1.3122   33.4560 H   0  0  0  0  0  0  0  0  0  0  0  0
   -0.0611    1.2050   33.8575 H   0  0  0  0  0  0  0  0  0  0  0  0
   -3.0787   -0.6645   33.3046 H   0  0  0  0  0  0  0  0  0  0  0  0
   -2.2958   -2.2035   33.7025 H   0  0  0  0  0  0  0  0  0  0  0  0
   -2.5692   -2.0348   31.2898 H   0  0  0  0  0  0  0  0  0  0  0  0
   -0.8261   -2.0015   31.7224 H   0  0  0  0  0  0  0  0  0  0  0  0
  1  2  1  0
  2  3  2  0
  3  4  1  0
  4  5  1  0
  4  6  2  0
  6  7  1  0
  7  8  1  0
  8  9  1  0
  9 10  1  0
 10 11  1  0
 11 12  1  0
 12 13  1  0
 12 14  1  0
 12 15  1  0
 15 16  2  0
 15 17  1  0
 17 18  1  0
 18 19  1  0
 19 20  2  0
 20 21  1  0
 21 22  2  0
 22 23  1  0
 23 24  2  0
 24 25  1  0
 25 26  2  0
 26 27  1  0
 22 28  1  0
 18 29  1  0
 29 30  1  0
 30 31  1  0
  9 32  1  0
 32 33  1  0
 33 34  2  0
 33 35  2  0
 33 36  1  0
 36 37  1  0
 37 38  1  0
 38 39  1  0
 39 40  1  0
 40 41  1  0
  7 42  2  0
 42  2  1  0
 31 18  1  0
 41 36  1  0
 28 19  1  0
 27 23  1  0
  1 43  1  0
  1 44  1  0
  1 45  1  0
  3 46  1  0
  5 47  1  0
  8 48  1  0
  8 49  1  0
  9 50  1  0
 10 51  1  0
 10 52  1  0
 11 53  1  0
 13 54  1  0
 17 55  1  0
 24 56  1  0
 25 57  1  0
 26 58  1  0
 28 59  1  0
 29 60  1  0
 29 61  1  0
 30 62  1  0
 30 63  1  0
 31 64  1  0
 31 65  1  0
 32 66  1  0
 37 67  1  0
 37 68  1  0
 38 69  1  0
 38 70  1  0
 40 71  1  0
 40 72  1  0
 41 73  1  0
 41 74  1  0
M  END
>  <Energy>  (452) 
426.65586528281551

>  <compound_id>  (452) 
2616

>  <target_id>  (452) 
1

>  <reference_id>  (452) 
188

>  <inspiration_ids>  (452) 
[175, 188]

>  <energy_score>  (452) 
419.4514161798978

>  <distance_score>  (452) 
5.25320421302013

>  <path>  (452) 
/opt/xchem-fragalysis-2/maxwin/BulkDock/SCRATCH/505736/C2616-P188/C2616-P188.minimised.mol

>  <scratch_subdir>  (452) 
/opt/xchem-fragalysis-2/maxwin/BulkDock/SCRATCH/505736/C2616-P188

>  <fragmenstein_runtime>  (452) 
40.911850452423096

>  <fragmenstein_outcome>  (452) 
too moved

>  <fragmenstein_mode>  (452) 
expansion

>  <fragmenstein_error>  (452) 


$$$$
C2617-P175
     RDKit          3D

 53 56  0  0  0  0  0  0  0  0999 V2000
    0.4152   -3.5810   28.1755 N   0  0  0  0  0  0  0  0  0  0  0  0
    0.9527   -2.2170   27.9898 C   0  0  0  0  0  0  0  0  0  0  0  0
    2.5406   -2.3047   27.9267 C   0  0  0  0  0  0  0  0  0  0  0  0
    2.9214   -3.4882   27.0680 N   0  0  0  0  0  0  0  0  0  0  0  0
    4.3351   -3.6656   26.6696 C   0  0  0  0  0  0  0  0  0  0  0  0
    5.2642   -3.7834   27.8778 C   0  0  0  0  0  0  0  0  0  0  0  0
    4.8473   -5.2857   27.9976 C   0  0  0  0  0  0  0  0  0  0  0  0
    3.6578   -5.4539   28.8408 N   0  0  0  0  0  0  0  0  0  0  0  0
    2.5747   -6.5483   28.8366 C   0  0  0  0  0  0  0  0  0  0  0  0
    2.4958   -7.5344   28.2126 O   0  0  0  0  0  0  0  0  0  0  0  0
    1.4653   -6.1840   29.8542 C   0  0  0  0  0  0  0  0  0  0  0  0
    1.9227   -4.9813   31.0155 Cl  0  0  0  0  0  0  0  0  0  0  0  0
    6.0036   -6.1270   28.5762 C   0  0  0  0  0  0  0  0  0  0  0  0
    6.5748   -5.7233   29.6883 N   0  0  0  0  0  0  0  0  0  0  0  0
    7.4494   -6.6776   30.0827 N   0  0  0  0  0  0  0  0  0  0  0  0
    7.4041   -7.6664   29.2160 C   0  0  0  0  0  0  0  0  0  0  0  0
    8.1170   -8.8834   29.4377 C   0  0  0  0  0  0  0  0  0  0  0  0
    8.8157   -9.1674   30.5998 C   0  0  0  0  0  0  0  0  0  0  0  0
    9.3857  -10.4654   30.6004 C   0  0  0  0  0  0  0  0  0  0  0  0
    9.1099  -11.1299   29.4305 C   0  0  0  0  0  0  0  0  0  0  0  0
    8.2040  -10.1761   28.3322 S   0  0  0  0  0  0  0  0  0  0  0  0
    6.5341   -7.3344   28.2038 N   0  0  0  0  0  0  0  0  0  0  0  0
    4.5740   -5.2167   26.4738 C   0  0  0  0  0  0  0  0  0  0  0  0
    0.1448   -1.3132   28.8932 C   0  0  0  0  0  0  0  0  0  0  0  0
    0.0283   -1.6976   30.2367 C   0  0  0  0  0  0  0  0  0  0  0  0
   -0.9133   -1.1176   31.0705 C   0  0  0  0  0  0  0  0  0  0  0  0
   -1.2183   -1.8793   32.7640 Br  0  0  0  0  0  0  0  0  0  0  0  0
   -1.6802   -0.0538   30.6288 C   0  0  0  0  0  0  0  0  0  0  0  0
   -1.5489    0.3885   29.3168 C   0  0  0  0  0  0  0  0  0  0  0  0
   -0.6914   -0.2737   28.4449 C   0  0  0  0  0  0  0  0  0  0  0  0
   -0.8071    0.1108   27.1405 O   0  0  0  0  0  0  0  0  0  0  0  0
    0.9261   -4.2094   27.5610 H   0  0  0  0  0  0  0  0  0  0  0  0
   -0.5681   -3.5884   27.8960 H   0  0  0  0  0  0  0  0  0  0  0  0
    0.6904   -1.8885   27.0020 H   0  0  0  0  0  0  0  0  0  0  0  0
    2.9416   -1.3798   27.4985 H   0  0  0  0  0  0  0  0  0  0  0  0
    2.9360   -2.4299   28.9389 H   0  0  0  0  0  0  0  0  0  0  0  0
    2.3551   -3.4156   26.2364 H   0  0  0  0  0  0  0  0  0  0  0  0
    4.6690   -3.0099   25.8620 H   0  0  0  0  0  0  0  0  0  0  0  0
    5.0645   -3.1440   28.7429 H   0  0  0  0  0  0  0  0  0  0  0  0
    6.3193   -3.6283   27.6093 H   0  0  0  0  0  0  0  0  0  0  0  0
    3.3669   -4.6907   29.4496 H   0  0  0  0  0  0  0  0  0  0  0  0
    0.5812   -5.7932   29.3727 H   0  0  0  0  0  0  0  0  0  0  0  0
    1.1579   -7.0831   30.3947 H   0  0  0  0  0  0  0  0  0  0  0  0
    8.8919   -8.4704   31.4276 H   0  0  0  0  0  0  0  0  0  0  0  0
    9.9510  -10.8956   31.4179 H   0  0  0  0  0  0  0  0  0  0  0  0
    9.3937  -12.1403   29.1798 H   0  0  0  0  0  0  0  0  0  0  0  0
    6.2831   -7.9041   27.4093 H   0  0  0  0  0  0  0  0  0  0  0  0
    5.4476   -5.4441   25.8493 H   0  0  0  0  0  0  0  0  0  0  0  0
    3.7281   -5.7991   26.0951 H   0  0  0  0  0  0  0  0  0  0  0  0
    0.6177   -2.5318   30.6043 H   0  0  0  0  0  0  0  0  0  0  0  0
   -2.4141    0.3967   31.2833 H   0  0  0  0  0  0  0  0  0  0  0  0
   -2.1745    1.1926   28.9377 H   0  0  0  0  0  0  0  0  0  0  0  0
   -1.0496   -0.6889   26.6221 H   0  0  0  0  0  0  0  0  0  0  0  0
  1  2  1  0
  2  3  1  0
  3  4  1  0
  4  5  1  0
  5  6  1  0
  6  7  1  0
  7  8  1  0
  8  9  1  0
  9 10  2  0
  9 11  1  0
 11 12  1  0
  7 13  1  0
 13 14  2  0
 14 15  1  0
 15 16  2  0
 16 17  1  0
 17 18  2  0
 18 19  1  0
 19 20  2  0
 20 21  1  0
 16 22  1  0
  7 23  1  0
  2 24  1  0
 24 25  2  0
 25 26  1  0
 26 27  1  0
 26 28  2  0
 28 29  1  0
 29 30  2  0
 30 31  1  0
 23  5  1  0
 30 24  1  0
 22 13  1  0
 21 17  1  0
  1 32  1  0
  1 33  1  0
  2 34  1  0
  3 35  1  0
  3 36  1  0
  4 37  1  0
  5 38  1  0
  6 39  1  0
  6 40  1  0
  8 41  1  0
 11 42  1  0
 11 43  1  0
 18 44  1  0
 19 45  1  0
 20 46  1  0
 22 47  1  0
 23 48  1  0
 23 49  1  0
 25 50  1  0
 28 51  1  0
 29 52  1  0
 31 53  1  0
M  END
>  <Energy>  (453) 
93.429293503316615

>  <compound_id>  (453) 
2617

>  <target_id>  (453) 
1

>  <reference_id>  (453) 
175

>  <inspiration_ids>  (453) 
[175, 189]

>  <energy_score>  (453) 
-30.954083516877233

>  <distance_score>  (453) 
1.9129722264445337

>  <path>  (453) 
/opt/xchem-fragalysis-2/maxwin/BulkDock/SCRATCH/505736/C2617-P175/C2617-P175.minimised.mol

>  <scratch_subdir>  (453) 
/opt/xchem-fragalysis-2/maxwin/BulkDock/SCRATCH/505736/C2617-P175

>  <fragmenstein_runtime>  (453) 
5.62854528427124

>  <fragmenstein_outcome>  (453) 
too moved

>  <fragmenstein_mode>  (453) 
expansion

>  <fragmenstein_error>  (453) 


$$$$
C2617-P189
     RDKit          3D

 53 56  0  0  0  0  0  0  0  0999 V2000
   -0.9406   -4.0727   28.6454 N   0  0  0  0  0  0  0  0  0  0  0  0
    0.1387   -3.0988   28.6990 C   0  0  0  0  0  0  0  0  0  0  0  0
    1.4266   -3.9400   29.1025 C   0  0  0  0  0  0  0  0  0  0  0  0
    2.1205   -4.4078   27.8667 N   0  0  0  0  0  0  0  0  0  0  0  0
    2.8048   -5.7103   27.8844 C   0  0  0  0  0  0  0  0  0  0  0  0
    3.7827   -5.7645   26.6875 C   0  0  0  0  0  0  0  0  0  0  0  0
    4.9355   -5.3205   27.6491 C   0  0  0  0  0  0  0  0  0  0  0  0
    5.0547   -3.8755   27.7213 N   0  0  0  0  0  0  0  0  0  0  0  0
    5.0948   -2.8121   26.5950 C   0  0  0  0  0  0  0  0  0  0  0  0
    5.1163   -2.9395   25.4385 O   0  0  0  0  0  0  0  0  0  0  0  0
    4.9912   -1.4679   27.2834 C   0  0  0  0  0  0  0  0  0  0  0  0
    3.2857   -1.5040   27.9273 Cl  0  0  0  0  0  0  0  0  0  0  0  0
    6.1832   -6.2366   27.5985 C   0  0  0  0  0  0  0  0  0  0  0  0
    6.2153   -7.2835   26.8077 N   0  0  0  0  0  0  0  0  0  0  0  0
    7.2045   -8.1187   27.2319 N   0  0  0  0  0  0  0  0  0  0  0  0
    7.7736   -7.5787   28.2809 C   0  0  0  0  0  0  0  0  0  0  0  0
    8.8382   -8.1890   29.0066 C   0  0  0  0  0  0  0  0  0  0  0  0
    9.6266   -9.2305   28.5605 C   0  0  0  0  0  0  0  0  0  0  0  0
   10.6372   -9.6079   29.4917 C   0  0  0  0  0  0  0  0  0  0  0  0
   10.5646   -8.8605   30.6412 C   0  0  0  0  0  0  0  0  0  0  0  0
    9.2902   -7.7195   30.5771 S   0  0  0  0  0  0  0  0  0  0  0  0
    7.1863   -6.3637   28.5202 N   0  0  0  0  0  0  0  0  0  0  0  0
    4.0102   -5.7557   28.8080 C   0  0  0  0  0  0  0  0  0  0  0  0
   -0.3877   -1.9300   29.4923 C   0  0  0  0  0  0  0  0  0  0  0  0
   -0.5671   -2.1525   30.8566 C   0  0  0  0  0  0  0  0  0  0  0  0
   -1.1331   -1.1796   31.6594 C   0  0  0  0  0  0  0  0  0  0  0  0
   -1.4562   -1.6090   33.4561 Br  0  0  0  0  0  0  0  0  0  0  0  0
   -1.4865    0.0595   31.1464 C   0  0  0  0  0  0  0  0  0  0  0  0
   -1.3452    0.2996   29.7861 C   0  0  0  0  0  0  0  0  0  0  0  0
   -0.8453   -0.7014   28.9551 C   0  0  0  0  0  0  0  0  0  0  0  0
   -0.8919   -0.3663   27.6310 O   0  0  0  0  0  0  0  0  0  0  0  0
   -0.6732   -4.8196   28.0009 H   0  0  0  0  0  0  0  0  0  0  0  0
   -1.7675   -3.6567   28.1931 H   0  0  0  0  0  0  0  0  0  0  0  0
    0.3530   -2.6661   27.7385 H   0  0  0  0  0  0  0  0  0  0  0  0
    1.1466   -4.7978   29.7280 H   0  0  0  0  0  0  0  0  0  0  0  0
    2.1093   -3.3335   29.7060 H   0  0  0  0  0  0  0  0  0  0  0  0
    2.6672   -3.6214   27.5035 H   0  0  0  0  0  0  0  0  0  0  0  0
    2.1556   -6.5763   28.0029 H   0  0  0  0  0  0  0  0  0  0  0  0
    3.5624   -5.0900   25.8584 H   0  0  0  0  0  0  0  0  0  0  0  0
    3.8634   -6.7756   26.2700 H   0  0  0  0  0  0  0  0  0  0  0  0
    5.1272   -3.4172   28.6228 H   0  0  0  0  0  0  0  0  0  0  0  0
    5.0774   -0.6468   26.5691 H   0  0  0  0  0  0  0  0  0  0  0  0
    5.6951   -1.3579   28.1104 H   0  0  0  0  0  0  0  0  0  0  0  0
    9.4889   -9.6949   27.5892 H   0  0  0  0  0  0  0  0  0  0  0  0
   11.3660  -10.3920   29.3254 H   0  0  0  0  0  0  0  0  0  0  0  0
   11.1936   -8.9286   31.5186 H   0  0  0  0  0  0  0  0  0  0  0  0
    7.3987   -5.7472   29.2879 H   0  0  0  0  0  0  0  0  0  0  0  0
    4.2296   -6.7638   29.1597 H   0  0  0  0  0  0  0  0  0  0  0  0
    3.9789   -5.1088   29.6915 H   0  0  0  0  0  0  0  0  0  0  0  0
   -0.3023   -3.1169   31.2845 H   0  0  0  0  0  0  0  0  0  0  0  0
   -1.9003    0.8227   31.7925 H   0  0  0  0  0  0  0  0  0  0  0  0
   -1.6653    1.2452   29.3552 H   0  0  0  0  0  0  0  0  0  0  0  0
   -0.9763   -1.1660   27.0772 H   0  0  0  0  0  0  0  0  0  0  0  0
  1  2  1  0
  2  3  1  0
  3  4  1  0
  4  5  1  0
  5  6  1  0
  6  7  1  0
  7  8  1  0
  8  9  1  0
  9 10  2  0
  9 11  1  0
 11 12  1  0
  7 13  1  0
 13 14  2  0
 14 15  1  0
 15 16  2  0
 16 17  1  0
 17 18  2  0
 18 19  1  0
 19 20  2  0
 20 21  1  0
 16 22  1  0
  7 23  1  0
  2 24  1  0
 24 25  2  0
 25 26  1  0
 26 27  1  0
 26 28  2  0
 28 29  1  0
 29 30  2  0
 30 31  1  0
 23  5  1  0
 30 24  1  0
 22 13  1  0
 21 17  1  0
  1 32  1  0
  1 33  1  0
  2 34  1  0
  3 35  1  0
  3 36  1  0
  4 37  1  0
  5 38  1  0
  6 39  1  0
  6 40  1  0
  8 41  1  0
 11 42  1  0
 11 43  1  0
 18 44  1  0
 19 45  1  0
 20 46  1  0
 22 47  1  0
 23 48  1  0
 23 49  1  0
 25 50  1  0
 28 51  1  0
 29 52  1  0
 31 53  1  0
M  END
>  <Energy>  (454) 
104.41586998882127

>  <compound_id>  (454) 
2617

>  <target_id>  (454) 
1

>  <reference_id>  (454) 
189

>  <inspiration_ids>  (454) 
[175, 189]

>  <energy_score>  (454) 
-19.967507031371326

>  <distance_score>  (454) 
3.281334455521048

>  <path>  (454) 
/opt/xchem-fragalysis-2/maxwin/BulkDock/SCRATCH/505736/C2617-P189/C2617-P189.minimised.mol

>  <scratch_subdir>  (454) 
/opt/xchem-fragalysis-2/maxwin/BulkDock/SCRATCH/505736/C2617-P189

>  <fragmenstein_runtime>  (454) 
10.562999963760376

>  <fragmenstein_outcome>  (454) 
too moved

>  <fragmenstein_mode>  (454) 
expansion

>  <fragmenstein_error>  (454) 


$$$$
C2619-P175
     RDKit          3D

 77 77  0  0  0  0  0  0  0  0999 V2000
    0.7723    3.5483   29.1329 C   0  0  0  0  0  0  0  0  0  0  0  0
    1.6454    2.4153   28.5970 C   0  0  0  0  0  0  0  0  0  0  0  0
    1.6141    1.0798   29.4092 C   0  0  0  0  0  0  0  0  0  0  0  0
    2.4182   -0.0224   28.6334 C   0  0  0  0  0  0  0  0  0  0  0  0
    3.8225    0.3275   28.0889 C   0  0  0  0  0  0  0  0  0  0  0  0
    4.9075    0.5253   29.1663 C   0  0  0  0  0  0  0  0  0  0  0  0
    5.1207   -0.6317   29.9997 N   0  0  0  0  0  0  0  0  0  0  0  0
    5.5384   -0.7424   31.3604 C   0  0  0  0  0  0  0  0  0  0  0  0
    5.6676   -2.2084   31.7215 C   0  0  0  0  0  0  0  0  0  0  0  0
    5.7441    0.0989   32.1861 O   0  0  0  0  0  0  0  0  0  0  0  0
    4.2338   -0.6807   27.1045 N   0  0  0  0  0  0  0  0  0  0  0  0
    4.5445   -2.0717   27.2563 C   0  0  0  0  0  0  0  0  0  0  0  0
    4.8341   -2.7045   25.9080 C   0  0  0  0  0  0  0  0  0  0  0  0
    4.6252   -2.7530   28.2394 O   0  0  0  0  0  0  0  0  0  0  0  0
    2.2573    1.3462   30.7208 N   0  0  0  0  0  0  0  0  0  0  0  0
    2.4802    0.4870   31.8566 C   0  0  0  0  0  0  0  0  0  0  0  0
    2.2741   -0.6849   32.0032 O   0  0  0  0  0  0  0  0  0  0  0  0
    3.0643    1.3025   33.0113 C   0  0  0  0  0  0  0  0  0  0  0  0
    1.7984    2.3996   33.6182 Cl  0  0  0  0  0  0  0  0  0  0  0  0
    0.0853    0.6209   29.6779 C   0  0  0  0  0  0  0  0  0  0  0  0
   -0.7937    0.6369   28.4877 N   0  0  0  0  0  0  0  0  0  0  0  0
   -0.5285   -0.5113   27.6556 N   0  0  0  0  0  0  0  0  0  0  0  0
   -0.0681   -0.7011   30.3021 N   0  0  0  0  0  0  0  0  0  0  0  0
   -1.1421   -0.7695   31.2836 C   0  0  0  0  0  0  0  0  0  0  0  0
   -1.5899   -2.2144   31.5128 C   0  0  0  0  0  0  0  0  0  0  0  0
   -0.4894   -3.1731   31.9776 C   0  0  0  0  0  0  0  0  0  0  0  0
    0.2070   -3.9082   30.8197 C   0  0  0  0  0  0  0  0  0  0  0  0
    1.2626   -4.9186   31.2910 C   0  0  0  0  0  0  0  0  0  0  0  0
    0.7207   -5.9223   32.2547 C   0  0  0  0  0  0  0  0  0  0  0  0
    1.0162   -6.0342   33.5603 C   0  0  0  0  0  0  0  0  0  0  0  0
    0.1357   -7.0737   34.1998 C   0  0  0  0  0  0  0  0  0  0  0  0
   -0.7221   -6.5003   35.3167 C   0  0  0  0  0  0  0  0  0  0  0  0
   -0.6806   -7.5351   33.0194 C   0  0  0  0  0  0  0  0  0  0  0  0
   -0.3102   -6.8742   31.9149 C   0  0  0  0  0  0  0  0  0  0  0  0
    0.9710    3.7538   30.1885 H   0  0  0  0  0  0  0  0  0  0  0  0
    0.9752    4.4666   28.5716 H   0  0  0  0  0  0  0  0  0  0  0  0
   -0.2920    3.3308   29.0154 H   0  0  0  0  0  0  0  0  0  0  0  0
    1.3578    2.2237   27.5556 H   0  0  0  0  0  0  0  0  0  0  0  0
    2.6722    2.8011   28.5729 H   0  0  0  0  0  0  0  0  0  0  0  0
    2.4871   -0.9333   29.2406 H   0  0  0  0  0  0  0  0  0  0  0  0
    1.8417   -0.3063   27.7490 H   0  0  0  0  0  0  0  0  0  0  0  0
    3.7668    1.2492   27.5008 H   0  0  0  0  0  0  0  0  0  0  0  0
    5.8698    0.7300   28.6823 H   0  0  0  0  0  0  0  0  0  0  0  0
    4.6928    1.3841   29.8078 H   0  0  0  0  0  0  0  0  0  0  0  0
    4.9665   -1.5703   29.6208 H   0  0  0  0  0  0  0  0  0  0  0  0
    6.0685   -2.3022   32.7351 H   0  0  0  0  0  0  0  0  0  0  0  0
    4.6849   -2.6873   31.6857 H   0  0  0  0  0  0  0  0  0  0  0  0
    6.3540   -2.7082   31.0320 H   0  0  0  0  0  0  0  0  0  0  0  0
    4.1734   -0.4612   26.1141 H   0  0  0  0  0  0  0  0  0  0  0  0
    5.8667   -3.0653   25.9042 H   0  0  0  0  0  0  0  0  0  0  0  0
    4.1530   -3.5484   25.7649 H   0  0  0  0  0  0  0  0  0  0  0  0
    4.7078   -2.0177   25.0679 H   0  0  0  0  0  0  0  0  0  0  0  0
    2.4723    2.3037   30.9829 H   0  0  0  0  0  0  0  0  0  0  0  0
    3.9163    1.8997   32.6770 H   0  0  0  0  0  0  0  0  0  0  0  0
    3.3745    0.6400   33.8236 H   0  0  0  0  0  0  0  0  0  0  0  0
   -0.3101    1.3723   30.3747 H   0  0  0  0  0  0  0  0  0  0  0  0
   -1.7561    0.6089   28.8301 H   0  0  0  0  0  0  0  0  0  0  0  0
   -1.2098   -0.6719   26.9056 H   0  0  0  0  0  0  0  0  0  0  0  0
   -0.5318   -1.3691   28.2234 H   0  0  0  0  0  0  0  0  0  0  0  0
    0.8103   -0.9379   30.7783 H   0  0  0  0  0  0  0  0  0  0  0  0
   -2.0211   -0.2055   30.9483 H   0  0  0  0  0  0  0  0  0  0  0  0
   -0.8134   -0.3207   32.2284 H   0  0  0  0  0  0  0  0  0  0  0  0
   -2.3692   -2.1902   32.2858 H   0  0  0  0  0  0  0  0  0  0  0  0
   -2.0722   -2.6033   30.6077 H   0  0  0  0  0  0  0  0  0  0  0  0
    0.2463   -2.6494   32.5987 H   0  0  0  0  0  0  0  0  0  0  0  0
   -0.9745   -3.9126   32.6254 H   0  0  0  0  0  0  0  0  0  0  0  0
   -0.5454   -4.4251   30.2126 H   0  0  0  0  0  0  0  0  0  0  0  0
    0.7002   -3.1947   30.1525 H   0  0  0  0  0  0  0  0  0  0  0  0
    2.0940   -4.3702   31.7523 H   0  0  0  0  0  0  0  0  0  0  0  0
    1.6823   -5.4381   30.4209 H   0  0  0  0  0  0  0  0  0  0  0  0
    1.7256   -5.4229   34.0995 H   0  0  0  0  0  0  0  0  0  0  0  0
    0.7519   -7.8878   34.5900 H   0  0  0  0  0  0  0  0  0  0  0  0
   -0.0978   -6.1703   36.1543 H   0  0  0  0  0  0  0  0  0  0  0  0
   -1.4182   -7.2563   35.6938 H   0  0  0  0  0  0  0  0  0  0  0  0
   -1.3067   -5.6378   34.9814 H   0  0  0  0  0  0  0  0  0  0  0  0
   -1.4439   -8.2973   33.0720 H   0  0  0  0  0  0  0  0  0  0  0  0
   -0.7242   -7.0025   30.9275 H   0  0  0  0  0  0  0  0  0  0  0  0
  1  2  1  0
  2  3  1  0
  3  4  1  0
  4  5  1  0
  5  6  1  0
  6  7  1  0
  7  8  1  0
  8  9  1  0
  8 10  2  0
  5 11  1  0
 11 12  1  0
 12 13  1  0
 12 14  2  0
  3 15  1  0
 15 16  1  0
 16 17  2  0
 16 18  1  0
 18 19  1  0
  3 20  1  0
 20 21  1  0
 21 22  1  0
 20 23  1  0
 23 24  1  0
 24 25  1  0
 25 26  1  0
 26 27  1  0
 27 28  1  0
 28 29  1  0
 29 30  2  0
 30 31  1  0
 31 32  1  0
 31 33  1  0
 33 34  2  0
 34 29  1  0
  1 35  1  0
  1 36  1  0
  1 37  1  0
  2 38  1  0
  2 39  1  0
  4 40  1  0
  4 41  1  0
  5 42  1  0
  6 43  1  0
  6 44  1  0
  7 45  1  0
  9 46  1  0
  9 47  1  0
  9 48  1  0
 11 49  1  0
 13 50  1  0
 13 51  1  0
 13 52  1  0
 15 53  1  0
 18 54  1  0
 18 55  1  0
 20 56  1  0
 21 57  1  0
 22 58  1  0
 22 59  1  0
 23 60  1  0
 24 61  1  0
 24 62  1  0
 25 63  1  0
 25 64  1  0
 26 65  1  0
 26 66  1  0
 27 67  1  0
 27 68  1  0
 28 69  1  0
 28 70  1  0
 30 71  1  0
 31 72  1  0
 32 73  1  0
 32 74  1  0
 32 75  1  0
 33 76  1  0
 34 77  1  0
M  END
>  <Energy>  (455) 
62.291268263350865

>  <compound_id>  (455) 
2619

>  <target_id>  (455) 
1

>  <reference_id>  (455) 
175

>  <inspiration_ids>  (455) 
[175, 194]

>  <energy_score>  (455) 
-127.84103087705824

>  <distance_score>  (455) 
3.120709986836824

>  <path>  (455) 
/opt/xchem-fragalysis-2/maxwin/BulkDock/SCRATCH/505736/C2619-P175/C2619-P175.minimised.mol

>  <scratch_subdir>  (455) 
/opt/xchem-fragalysis-2/maxwin/BulkDock/SCRATCH/505736/C2619-P175

>  <fragmenstein_runtime>  (455) 
29.262900829315186

>  <fragmenstein_outcome>  (455) 
too moved

>  <fragmenstein_mode>  (455) 
expansion

>  <fragmenstein_error>  (455) 


$$$$
C2619-P194
     RDKit          3D

 77 77  0  0  0  0  0  0  0  0999 V2000
    1.2371    2.8206   28.4404 C   0  0  0  0  0  0  0  0  0  0  0  0
    1.7216    1.3797   28.2970 C   0  0  0  0  0  0  0  0  0  0  0  0
    1.3094    0.4110   29.4544 C   0  0  0  0  0  0  0  0  0  0  0  0
    1.8151   -1.0336   29.1020 C   0  0  0  0  0  0  0  0  0  0  0  0
    3.3268   -1.3142   29.1263 C   0  0  0  0  0  0  0  0  0  0  0  0
    3.7649   -1.8599   30.5025 C   0  0  0  0  0  0  0  0  0  0  0  0
    5.2042   -1.9031   30.6376 N   0  0  0  0  0  0  0  0  0  0  0  0
    6.0701   -2.9284   31.1364 C   0  0  0  0  0  0  0  0  0  0  0  0
    7.4951   -2.4135   31.1451 C   0  0  0  0  0  0  0  0  0  0  0  0
    5.8336   -4.0438   31.4970 O   0  0  0  0  0  0  0  0  0  0  0  0
    3.7265   -2.2618   28.0848 N   0  0  0  0  0  0  0  0  0  0  0  0
    3.3163   -3.6126   27.8344 C   0  0  0  0  0  0  0  0  0  0  0  0
    4.1547   -4.1903   26.7116 C   0  0  0  0  0  0  0  0  0  0  0  0
    2.4824   -4.2883   28.3650 O   0  0  0  0  0  0  0  0  0  0  0  0
    1.8675    0.9469   30.7282 N   0  0  0  0  0  0  0  0  0  0  0  0
    3.1971    1.3752   31.0711 C   0  0  0  0  0  0  0  0  0  0  0  0
    4.2187    1.3369   30.4432 O   0  0  0  0  0  0  0  0  0  0  0  0
    3.2558    1.8700   32.5222 C   0  0  0  0  0  0  0  0  0  0  0  0
    1.7339    2.6311   33.0462 Cl  0  0  0  0  0  0  0  0  0  0  0  0
   -0.3121    0.3938   29.6146 C   0  0  0  0  0  0  0  0  0  0  0  0
   -1.0463    0.2735   28.3417 N   0  0  0  0  0  0  0  0  0  0  0  0
   -1.1659   -1.1128   27.9118 N   0  0  0  0  0  0  0  0  0  0  0  0
   -0.9471   -0.5963   30.4882 N   0  0  0  0  0  0  0  0  0  0  0  0
   -0.4756   -0.7118   31.8488 C   0  0  0  0  0  0  0  0  0  0  0  0
   -1.1304   -1.9021   32.5552 C   0  0  0  0  0  0  0  0  0  0  0  0
   -0.2591   -3.1624   32.5640 C   0  0  0  0  0  0  0  0  0  0  0  0
   -0.2354   -3.9564   31.2517 C   0  0  0  0  0  0  0  0  0  0  0  0
    0.7266   -5.1584   31.2958 C   0  0  0  0  0  0  0  0  0  0  0  0
    0.4398   -6.0586   32.4511 C   0  0  0  0  0  0  0  0  0  0  0  0
    1.1061   -6.1238   33.6161 C   0  0  0  0  0  0  0  0  0  0  0  0
    0.3410   -6.9741   34.5939 C   0  0  0  0  0  0  0  0  0  0  0  0
   -0.1057   -6.1888   35.8192 C   0  0  0  0  0  0  0  0  0  0  0  0
   -0.8263   -7.4137   33.7523 C   0  0  0  0  0  0  0  0  0  0  0  0
   -0.7300   -6.8979   32.5206 C   0  0  0  0  0  0  0  0  0  0  0  0
    1.5822    3.2739   29.3740 H   0  0  0  0  0  0  0  0  0  0  0  0
    1.6294    3.4245   27.6151 H   0  0  0  0  0  0  0  0  0  0  0  0
    0.1469    2.8913   28.4033 H   0  0  0  0  0  0  0  0  0  0  0  0
    1.3573    0.9900   27.3395 H   0  0  0  0  0  0  0  0  0  0  0  0
    2.8129    1.4114   28.2044 H   0  0  0  0  0  0  0  0  0  0  0  0
    1.3445   -1.7559   29.7714 H   0  0  0  0  0  0  0  0  0  0  0  0
    1.4449   -1.2756   28.0990 H   0  0  0  0  0  0  0  0  0  0  0  0
    3.8868   -0.4123   28.8750 H   0  0  0  0  0  0  0  0  0  0  0  0
    3.3945   -1.2463   31.3260 H   0  0  0  0  0  0  0  0  0  0  0  0
    3.3841   -2.8742   30.6662 H   0  0  0  0  0  0  0  0  0  0  0  0
    5.7410   -1.0505   30.5078 H   0  0  0  0  0  0  0  0  0  0  0  0
    8.1698   -3.2065   31.4812 H   0  0  0  0  0  0  0  0  0  0  0  0
    7.7907   -2.1102   30.1367 H   0  0  0  0  0  0  0  0  0  0  0  0
    7.5812   -1.5673   31.8326 H   0  0  0  0  0  0  0  0  0  0  0  0
    4.5219   -2.0429   27.4945 H   0  0  0  0  0  0  0  0  0  0  0  0
    3.6748   -5.0957   26.3285 H   0  0  0  0  0  0  0  0  0  0  0  0
    4.2453   -3.4789   25.8864 H   0  0  0  0  0  0  0  0  0  0  0  0
    5.1473   -4.4448   27.0929 H   0  0  0  0  0  0  0  0  0  0  0  0
    1.2307    1.2119   31.4764 H   0  0  0  0  0  0  0  0  0  0  0  0
    4.0466    2.6190   32.6163 H   0  0  0  0  0  0  0  0  0  0  0  0
    3.4660    1.0224   33.1800 H   0  0  0  0  0  0  0  0  0  0  0  0
   -0.5779    1.3775   30.0189 H   0  0  0  0  0  0  0  0  0  0  0  0
   -1.9694    0.6929   28.4969 H   0  0  0  0  0  0  0  0  0  0  0  0
   -1.1013   -1.1789   26.8854 H   0  0  0  0  0  0  0  0  0  0  0  0
   -2.0900   -1.5055   28.1219 H   0  0  0  0  0  0  0  0  0  0  0  0
   -0.8709   -1.4718   29.9692 H   0  0  0  0  0  0  0  0  0  0  0  0
   -0.7427    0.2052   32.3865 H   0  0  0  0  0  0  0  0  0  0  0  0
    0.6079   -0.8330   31.9088 H   0  0  0  0  0  0  0  0  0  0  0  0
   -2.1272   -2.1213   32.1526 H   0  0  0  0  0  0  0  0  0  0  0  0
   -1.2868   -1.6119   33.6029 H   0  0  0  0  0  0  0  0  0  0  0  0
    0.7645   -2.9039   32.8622 H   0  0  0  0  0  0  0  0  0  0  0  0
   -0.6601   -3.8037   33.3577 H   0  0  0  0  0  0  0  0  0  0  0  0
   -1.2510   -4.3004   31.0320 H   0  0  0  0  0  0  0  0  0  0  0  0
    0.0633   -3.3216   30.4171 H   0  0  0  0  0  0  0  0  0  0  0  0
    1.7570   -4.7872   31.3607 H   0  0  0  0  0  0  0  0  0  0  0  0
    0.6586   -5.7212   30.3573 H   0  0  0  0  0  0  0  0  0  0  0  0
    1.9963   -5.5623   33.8620 H   0  0  0  0  0  0  0  0  0  0  0  0
    0.9470   -7.8320   34.8994 H   0  0  0  0  0  0  0  0  0  0  0  0
   -0.7316   -5.3289   35.5531 H   0  0  0  0  0  0  0  0  0  0  0  0
    0.7595   -5.8120   36.3755 H   0  0  0  0  0  0  0  0  0  0  0  0
   -0.6859   -6.8262   36.4944 H   0  0  0  0  0  0  0  0  0  0  0  0
   -1.6190   -8.0563   34.1000 H   0  0  0  0  0  0  0  0  0  0  0  0
   -1.4262   -7.0508   31.7123 H   0  0  0  0  0  0  0  0  0  0  0  0
  1  2  1  0
  2  3  1  0
  3  4  1  0
  4  5  1  0
  5  6  1  0
  6  7  1  0
  7  8  1  0
  8  9  1  0
  8 10  2  0
  5 11  1  0
 11 12  1  0
 12 13  1  0
 12 14  2  0
  3 15  1  0
 15 16  1  0
 16 17  2  0
 16 18  1  0
 18 19  1  0
  3 20  1  0
 20 21  1  0
 21 22  1  0
 20 23  1  0
 23 24  1  0
 24 25  1  0
 25 26  1  0
 26 27  1  0
 27 28  1  0
 28 29  1  0
 29 30  2  0
 30 31  1  0
 31 32  1  0
 31 33  1  0
 33 34  2  0
 34 29  1  0
  1 35  1  0
  1 36  1  0
  1 37  1  0
  2 38  1  0
  2 39  1  0
  4 40  1  0
  4 41  1  0
  5 42  1  0
  6 43  1  0
  6 44  1  0
  7 45  1  0
  9 46  1  0
  9 47  1  0
  9 48  1  0
 11 49  1  0
 13 50  1  0
 13 51  1  0
 13 52  1  0
 15 53  1  0
 18 54  1  0
 18 55  1  0
 20 56  1  0
 21 57  1  0
 22 58  1  0
 22 59  1  0
 23 60  1  0
 24 61  1  0
 24 62  1  0
 25 63  1  0
 25 64  1  0
 26 65  1  0
 26 66  1  0
 27 67  1  0
 27 68  1  0
 28 69  1  0
 28 70  1  0
 30 71  1  0
 31 72  1  0
 32 73  1  0
 32 74  1  0
 32 75  1  0
 33 76  1  0
 34 77  1  0
M  END
>  <Energy>  (456) 
78.910742803127704

>  <compound_id>  (456) 
2619

>  <target_id>  (456) 
1

>  <reference_id>  (456) 
194

>  <inspiration_ids>  (456) 
[175, 194]

>  <energy_score>  (456) 
-111.22155633728252

>  <distance_score>  (456) 
2.4317653290525074

>  <path>  (456) 
/opt/xchem-fragalysis-2/maxwin/BulkDock/SCRATCH/505736/C2619-P194/C2619-P194.minimised.mol

>  <scratch_subdir>  (456) 
/opt/xchem-fragalysis-2/maxwin/BulkDock/SCRATCH/505736/C2619-P194

>  <fragmenstein_runtime>  (456) 
25.68537974357605

>  <fragmenstein_outcome>  (456) 
too moved

>  <fragmenstein_mode>  (456) 
expansion

>  <fragmenstein_error>  (456) 


$$$$
C2626-P176
     RDKit          3D

 57 60  0  0  0  0  0  0  0  0999 V2000
  -18.7775    2.2137   20.8435 C   0  0  0  0  0  0  0  0  0  0  0  0
  -19.7366    3.1852   21.4620 C   0  0  0  0  0  0  0  0  0  0  0  0
  -19.5908    3.5030   22.8191 C   0  0  0  0  0  0  0  0  0  0  0  0
  -20.5279    4.3059   23.4602 C   0  0  0  0  0  0  0  0  0  0  0  0
  -21.6314    4.7662   22.7615 C   0  0  0  0  0  0  0  0  0  0  0  0
  -22.5410    5.5226   23.3896 F   0  0  0  0  0  0  0  0  0  0  0  0
  -21.8192    4.4355   21.4290 C   0  0  0  0  0  0  0  0  0  0  0  0
  -20.8564    3.6732   20.7697 C   0  0  0  0  0  0  0  0  0  0  0  0
  -21.1294    3.2915   19.4649 N   0  0  0  0  0  0  0  0  0  0  0  0
  -20.2992    3.4756   18.1656 C   0  0  0  0  0  0  0  0  0  0  0  0
  -19.2229    3.9088   18.0080 O   0  0  0  0  0  0  0  0  0  0  0  0
  -21.0082    2.8966   16.9642 C   0  0  0  0  0  0  0  0  0  0  0  0
  -20.2163    2.5761   15.8595 C   0  0  0  0  0  0  0  0  0  0  0  0
  -20.8124    1.9535   14.7839 C   0  0  0  0  0  0  0  0  0  0  0  0
  -22.1254    1.6437   14.7343 N   0  0  0  0  0  0  0  0  0  0  0  0
  -22.9035    1.9776   15.7908 C   0  0  0  0  0  0  0  0  0  0  0  0
  -24.3964    1.6908   15.6690 C   0  0  0  0  0  0  0  0  0  0  0  0
  -24.7064    0.3032   15.0857 C   0  0  0  0  0  0  0  0  0  0  0  0
  -26.1518    0.0048   15.0883 N   0  0  0  0  0  0  0  0  0  0  0  0
  -26.6731   -0.8396   15.9205 C   0  0  0  0  0  0  0  0  0  0  0  0
  -28.1816   -1.2333   15.8037 C   0  0  0  0  0  0  0  0  0  0  0  0
  -28.3428   -3.0573   15.5979 S   0  0  0  0  0  0  0  0  0  0  0  0
  -28.9978   -0.4147   14.4572 Cl  0  0  0  0  0  0  0  0  0  0  0  0
  -25.9866   -1.4583   16.9470 N   0  0  0  0  0  0  0  0  0  0  0  0
  -25.8858   -0.8897   18.2915 C   0  0  0  0  0  0  0  0  0  0  0  0
  -24.4147   -0.6197   18.6680 C   0  0  0  0  0  0  0  0  0  0  0  0
  -23.5172   -1.6899   18.1180 C   0  0  0  0  0  0  0  0  0  0  0  0
  -21.8483   -1.7052   18.3997 S   0  0  0  0  0  0  0  0  0  0  0  0
  -21.6617   -3.1376   17.4807 C   0  0  0  0  0  0  0  0  0  0  0  0
  -22.8484   -3.5693   16.9315 C   0  0  0  0  0  0  0  0  0  0  0  0
  -23.9162   -2.6976   17.2612 C   0  0  0  0  0  0  0  0  0  0  0  0
  -25.3096   -2.7400   16.7436 C   0  0  0  0  0  0  0  0  0  0  0  0
  -22.3829    2.6330   16.9043 C   0  0  0  0  0  0  0  0  0  0  0  0
  -19.3298    1.3202   20.5371 H   0  0  0  0  0  0  0  0  0  0  0  0
  -18.2760    2.6517   19.9805 H   0  0  0  0  0  0  0  0  0  0  0  0
  -18.0029    1.9011   21.5517 H   0  0  0  0  0  0  0  0  0  0  0  0
  -18.7517    3.1083   23.3887 H   0  0  0  0  0  0  0  0  0  0  0  0
  -20.4127    4.5548   24.5039 H   0  0  0  0  0  0  0  0  0  0  0  0
  -22.7022    4.7999   20.9160 H   0  0  0  0  0  0  0  0  0  0  0  0
  -22.0492    2.9650   19.2317 H   0  0  0  0  0  0  0  0  0  0  0  0
  -19.1560    2.8001   15.8399 H   0  0  0  0  0  0  0  0  0  0  0  0
  -20.2394    1.6794   13.9027 H   0  0  0  0  0  0  0  0  0  0  0  0
  -24.8425    2.4665   15.0349 H   0  0  0  0  0  0  0  0  0  0  0  0
  -24.8729    1.7827   16.6516 H   0  0  0  0  0  0  0  0  0  0  0  0
  -24.1157   -0.4630   15.5898 H   0  0  0  0  0  0  0  0  0  0  0  0
  -24.3775    0.2720   14.0395 H   0  0  0  0  0  0  0  0  0  0  0  0
  -28.6820   -0.9428   16.7324 H   0  0  0  0  0  0  0  0  0  0  0  0
  -27.8857   -3.0691   14.3374 H   0  0  0  0  0  0  0  0  0  0  0  0
  -26.4645    0.0378   18.3749 H   0  0  0  0  0  0  0  0  0  0  0  0
  -26.3234   -1.6002   19.0042 H   0  0  0  0  0  0  0  0  0  0  0  0
  -24.3230   -0.5563   19.7583 H   0  0  0  0  0  0  0  0  0  0  0  0
  -24.1042    0.3466   18.2606 H   0  0  0  0  0  0  0  0  0  0  0  0
  -20.6789   -3.5745   17.3689 H   0  0  0  0  0  0  0  0  0  0  0  0
  -22.9260   -4.4291   16.2774 H   0  0  0  0  0  0  0  0  0  0  0  0
  -25.2831   -2.9955   15.6771 H   0  0  0  0  0  0  0  0  0  0  0  0
  -25.8567   -3.5327   17.2673 H   0  0  0  0  0  0  0  0  0  0  0  0
  -23.0763    2.9380   17.6757 H   0  0  0  0  0  0  0  0  0  0  0  0
  1  2  1  0
  2  3  2  0
  3  4  1  0
  4  5  2  0
  5  6  1  0
  5  7  1  0
  7  8  2  0
  8  9  1  0
  9 10  1  0
 10 11  2  0
 10 12  1  0
 12 13  2  0
 13 14  1  0
 14 15  2  0
 15 16  1  0
 16 17  1  0
 17 18  1  0
 18 19  1  0
 19 20  2  3
 20 21  1  0
 21 22  1  0
 21 23  1  0
 20 24  1  0
 24 25  1  0
 25 26  1  0
 26 27  1  0
 27 28  1  0
 28 29  1  0
 29 30  2  0
 30 31  1  0
 31 32  1  0
 16 33  2  0
  8  2  1  0
 33 12  1  0
 32 24  1  0
 31 27  2  0
  1 34  1  0
  1 35  1  0
  1 36  1  0
  3 37  1  0
  4 38  1  0
  7 39  1  0
  9 40  1  0
 13 41  1  0
 14 42  1  0
 17 43  1  0
 17 44  1  0
 18 45  1  0
 18 46  1  0
 21 47  1  0
 22 48  1  0
 25 49  1  0
 25 50  1  0
 26 51  1  0
 26 52  1  0
 29 53  1  0
 30 54  1  0
 32 55  1  0
 32 56  1  0
 33 57  1  0
M  END
>  <Energy>  (457) 
125.04234410871094

>  <compound_id>  (457) 
2626

>  <target_id>  (457) 
1

>  <reference_id>  (457) 
176

>  <inspiration_ids>  (457) 
[176, 43]

>  <energy_score>  (457) 
-59.28888175827578

>  <distance_score>  (457) 
1.7570191750816029

>  <path>  (457) 
/opt/xchem-fragalysis-2/maxwin/BulkDock/SCRATCH/505736/C2626-P176/C2626-P176.minimised.mol

>  <scratch_subdir>  (457) 
/opt/xchem-fragalysis-2/maxwin/BulkDock/SCRATCH/505736/C2626-P176

>  <fragmenstein_runtime>  (457) 
6.554908514022827

>  <fragmenstein_outcome>  (457) 
too moved

>  <fragmenstein_mode>  (457) 
expansion

>  <fragmenstein_error>  (457) 


$$$$
C2626-P43
     RDKit          3D

 57 60  0  0  0  0  0  0  0  0999 V2000
  -18.8268    1.5564   21.0980 C   0  0  0  0  0  0  0  0  0  0  0  0
  -19.6823    2.6828   21.6087 C   0  0  0  0  0  0  0  0  0  0  0  0
  -19.5714    2.9947   22.9798 C   0  0  0  0  0  0  0  0  0  0  0  0
  -20.3824    3.9604   23.5713 C   0  0  0  0  0  0  0  0  0  0  0  0
  -21.3183    4.6192   22.7947 C   0  0  0  0  0  0  0  0  0  0  0  0
  -22.1055    5.5466   23.3547 F   0  0  0  0  0  0  0  0  0  0  0  0
  -21.4534    4.3324   21.4427 C   0  0  0  0  0  0  0  0  0  0  0  0
  -20.6205    3.3859   20.8306 C   0  0  0  0  0  0  0  0  0  0  0  0
  -20.8626    3.1732   19.4714 N   0  0  0  0  0  0  0  0  0  0  0  0
  -19.9269    2.6546   18.3522 C   0  0  0  0  0  0  0  0  0  0  0  0
  -18.7875    2.3977   18.3765 O   0  0  0  0  0  0  0  0  0  0  0  0
  -20.6638    2.4000   17.0735 C   0  0  0  0  0  0  0  0  0  0  0  0
  -19.9149    2.4316   15.8959 C   0  0  0  0  0  0  0  0  0  0  0  0
  -20.5627    2.1516   14.7152 C   0  0  0  0  0  0  0  0  0  0  0  0
  -21.8799    1.8723   14.6386 N   0  0  0  0  0  0  0  0  0  0  0  0
  -22.6031    1.8126   15.7845 C   0  0  0  0  0  0  0  0  0  0  0  0
  -24.0825    1.4926   15.6165 C   0  0  0  0  0  0  0  0  0  0  0  0
  -24.3157    0.1076   14.9994 C   0  0  0  0  0  0  0  0  0  0  0  0
  -25.7301   -0.1415   14.6551 N   0  0  0  0  0  0  0  0  0  0  0  0
  -26.4185   -1.0709   15.2403 C   0  0  0  0  0  0  0  0  0  0  0  0
  -27.8427   -1.4216   14.6921 C   0  0  0  0  0  0  0  0  0  0  0  0
  -28.3938   -3.1023   15.2310 S   0  0  0  0  0  0  0  0  0  0  0  0
  -27.8324   -1.4041   12.9082 Cl  0  0  0  0  0  0  0  0  0  0  0  0
  -26.0197   -1.7372   16.3775 N   0  0  0  0  0  0  0  0  0  0  0  0
  -26.3583   -1.2545   17.7183 C   0  0  0  0  0  0  0  0  0  0  0  0
  -25.0901   -0.9352   18.5242 C   0  0  0  0  0  0  0  0  0  0  0  0
  -24.0263   -1.9509   18.2437 C   0  0  0  0  0  0  0  0  0  0  0  0
  -22.5603   -1.9635   19.0777 S   0  0  0  0  0  0  0  0  0  0  0  0
  -21.9981   -3.2953   18.1678 C   0  0  0  0  0  0  0  0  0  0  0  0
  -22.9146   -3.7154   17.2309 C   0  0  0  0  0  0  0  0  0  0  0  0
  -24.0789   -2.9081   17.2486 C   0  0  0  0  0  0  0  0  0  0  0  0
  -25.2340   -2.9672   16.3137 C   0  0  0  0  0  0  0  0  0  0  0  0
  -22.0226    2.0556   17.0244 C   0  0  0  0  0  0  0  0  0  0  0  0
  -18.5081    0.9051   21.9202 H   0  0  0  0  0  0  0  0  0  0  0  0
  -19.3897    0.9139   20.4148 H   0  0  0  0  0  0  0  0  0  0  0  0
  -17.9262    1.9356   20.6164 H   0  0  0  0  0  0  0  0  0  0  0  0
  -18.8478    2.4677   23.5995 H   0  0  0  0  0  0  0  0  0  0  0  0
  -20.2977    4.1879   24.6282 H   0  0  0  0  0  0  0  0  0  0  0  0
  -22.1988    4.8805   20.8746 H   0  0  0  0  0  0  0  0  0  0  0  0
  -21.7749    3.3685   19.0848 H   0  0  0  0  0  0  0  0  0  0  0  0
  -18.8541    2.6506   15.9005 H   0  0  0  0  0  0  0  0  0  0  0  0
  -20.0347    2.1486   13.7658 H   0  0  0  0  0  0  0  0  0  0  0  0
  -24.6030    1.5706   16.5763 H   0  0  0  0  0  0  0  0  0  0  0  0
  -24.5218    2.2629   14.9700 H   0  0  0  0  0  0  0  0  0  0  0  0
  -23.8824   -0.6590   15.6428 H   0  0  0  0  0  0  0  0  0  0  0  0
  -23.7565    0.0330   14.0583 H   0  0  0  0  0  0  0  0  0  0  0  0
  -28.5508   -0.6692   15.0509 H   0  0  0  0  0  0  0  0  0  0  0  0
  -27.6213   -3.7620   14.3573 H   0  0  0  0  0  0  0  0  0  0  0  0
  -26.9367   -2.0315   18.2343 H   0  0  0  0  0  0  0  0  0  0  0  0
  -26.9983   -0.3655   17.6697 H   0  0  0  0  0  0  0  0  0  0  0  0
  -25.3335   -0.9027   19.5922 H   0  0  0  0  0  0  0  0  0  0  0  0
  -24.7168    0.0550   18.2444 H   0  0  0  0  0  0  0  0  0  0  0  0
  -21.0038   -3.6797   18.3411 H   0  0  0  0  0  0  0  0  0  0  0  0
  -22.7276   -4.5197   16.5307 H   0  0  0  0  0  0  0  0  0  0  0  0
  -25.8585   -3.8250   16.5880 H   0  0  0  0  0  0  0  0  0  0  0  0
  -24.8730   -3.1366   15.2917 H   0  0  0  0  0  0  0  0  0  0  0  0
  -22.6208    1.9319   17.9187 H   0  0  0  0  0  0  0  0  0  0  0  0
  1  2  1  0
  2  3  2  0
  3  4  1  0
  4  5  2  0
  5  6  1  0
  5  7  1  0
  7  8  2  0
  8  9  1  0
  9 10  1  0
 10 11  2  0
 10 12  1  0
 12 13  2  0
 13 14  1  0
 14 15  2  0
 15 16  1  0
 16 17  1  0
 17 18  1  0
 18 19  1  0
 19 20  2  3
 20 21  1  0
 21 22  1  0
 21 23  1  0
 20 24  1  0
 24 25  1  0
 25 26  1  0
 26 27  1  0
 27 28  1  0
 28 29  1  0
 29 30  2  0
 30 31  1  0
 31 32  1  0
 16 33  2  0
  8  2  1  0
 33 12  1  0
 32 24  1  0
 31 27  2  0
  1 34  1  0
  1 35  1  0
  1 36  1  0
  3 37  1  0
  4 38  1  0
  7 39  1  0
  9 40  1  0
 13 41  1  0
 14 42  1  0
 17 43  1  0
 17 44  1  0
 18 45  1  0
 18 46  1  0
 21 47  1  0
 22 48  1  0
 25 49  1  0
 25 50  1  0
 26 51  1  0
 26 52  1  0
 29 53  1  0
 30 54  1  0
 32 55  1  0
 32 56  1  0
 33 57  1  0
M  END
>  <Energy>  (458) 
117.41489265545086

>  <compound_id>  (458) 
2626

>  <target_id>  (458) 
1

>  <reference_id>  (458) 
43

>  <inspiration_ids>  (458) 
[176, 43]

>  <energy_score>  (458) 
-66.91633321153711

>  <distance_score>  (458) 
1.5533830327514744

>  <path>  (458) 
/opt/xchem-fragalysis-2/maxwin/BulkDock/SCRATCH/505736/C2626-P43/C2626-P43.minimised.mol

>  <scratch_subdir>  (458) 
/opt/xchem-fragalysis-2/maxwin/BulkDock/SCRATCH/505736/C2626-P43

>  <fragmenstein_runtime>  (458) 
6.8829591274261475

>  <fragmenstein_outcome>  (458) 
too moved

>  <fragmenstein_mode>  (458) 
expansion

>  <fragmenstein_error>  (458) 


$$$$
C2629-P176
     RDKit          3D

 40 43  0  0  0  0  0  0  0  0999 V2000
  -28.6890   -2.0747   19.4624 O   0  0  0  0  0  0  0  0  0  0  0  0
  -27.5109   -1.7158   19.4221 C   0  0  0  0  0  0  0  0  0  0  0  0
  -26.9120   -0.6462   20.3404 C   0  0  0  0  0  0  0  0  0  0  0  0
  -27.9901    0.8131   20.3634 S   0  0  0  0  0  0  0  0  0  0  0  0
  -26.7634   -1.3477   21.9640 Cl  0  0  0  0  0  0  0  0  0  0  0  0
  -26.6590   -2.2311   18.4618 N   0  0  0  0  0  0  0  0  0  0  0  0
  -26.5545   -1.5299   17.1876 C   0  0  0  0  0  0  0  0  0  0  0  0
  -26.1161   -2.4475   16.0877 C   0  0  0  0  0  0  0  0  0  0  0  0
  -25.8792   -2.0760   14.7285 C   0  0  0  0  0  0  0  0  0  0  0  0
  -25.4449   -3.1390   13.9661 C   0  0  0  0  0  0  0  0  0  0  0  0
  -25.3255   -4.5820   14.8774 S   0  0  0  0  0  0  0  0  0  0  0  0
  -25.8534   -3.7904   16.2817 C   0  0  0  0  0  0  0  0  0  0  0  0
  -25.9862   -4.4835   17.6005 C   0  0  0  0  0  0  0  0  0  0  0  0
  -25.8999   -3.4454   18.7469 C   0  0  0  0  0  0  0  0  0  0  0  0
  -24.5281   -3.1318   19.2050 N   0  0  0  0  0  0  0  0  0  0  0  0
  -23.6617   -2.5872   18.2310 N   0  0  0  0  0  0  0  0  0  0  0  0
  -23.2835   -1.3071   18.4941 C   0  0  0  0  0  0  0  0  0  0  0  0
  -23.4441   -0.6293   19.6139 N   0  0  0  0  0  0  0  0  0  0  0  0
  -22.9756    0.6480   19.4244 N   0  0  0  0  0  0  0  0  0  0  0  0
  -22.5032    0.7241   18.2003 C   0  0  0  0  0  0  0  0  0  0  0  0
  -21.9039    1.7816   17.4652 C   0  0  0  0  0  0  0  0  0  0  0  0
  -21.5388    1.5768   16.1841 C   0  0  0  0  0  0  0  0  0  0  0  0
  -21.7344    0.2893   15.5335 C   0  0  0  0  0  0  0  0  0  0  0  0
  -22.2888   -0.7179   16.2308 C   0  0  0  0  0  0  0  0  0  0  0  0
  -22.6704   -0.4946   17.5557 N   0  0  0  0  0  0  0  0  0  0  0  0
  -25.9227   -0.3436   19.9998 H   0  0  0  0  0  0  0  0  0  0  0  0
  -29.0978    0.1350   20.7045 H   0  0  0  0  0  0  0  0  0  0  0  0
  -25.8367   -0.7125   17.3097 H   0  0  0  0  0  0  0  0  0  0  0  0
  -27.5251   -1.0796   16.9487 H   0  0  0  0  0  0  0  0  0  0  0  0
  -26.0191   -1.0793   14.3258 H   0  0  0  0  0  0  0  0  0  0  0  0
  -25.1968   -3.1428   12.9130 H   0  0  0  0  0  0  0  0  0  0  0  0
  -26.9704   -4.9688   17.6320 H   0  0  0  0  0  0  0  0  0  0  0  0
  -25.2325   -5.2674   17.7327 H   0  0  0  0  0  0  0  0  0  0  0  0
  -26.3710   -3.9191   19.6187 H   0  0  0  0  0  0  0  0  0  0  0  0
  -24.6022   -2.5334   20.0449 H   0  0  0  0  0  0  0  0  0  0  0  0
  -23.6938   -2.9445   17.2730 H   0  0  0  0  0  0  0  0  0  0  0  0
  -21.7443    2.7343   17.9580 H   0  0  0  0  0  0  0  0  0  0  0  0
  -21.0738    2.3734   15.6105 H   0  0  0  0  0  0  0  0  0  0  0  0
  -21.4210    0.1699   14.5015 H   0  0  0  0  0  0  0  0  0  0  0  0
  -22.4556   -1.6993   15.8068 H   0  0  0  0  0  0  0  0  0  0  0  0
  1  2  2  0
  2  3  1  0
  3  4  1  0
  3  5  1  0
  2  6  1  0
  6  7  1  0
  7  8  1  0
  8  9  1  0
  9 10  2  0
 10 11  1  0
 11 12  1  0
 12 13  1  0
 13 14  1  0
 14 15  1  0
 15 16  1  0
 16 17  1  0
 17 18  2  0
 18 19  1  0
 19 20  2  0
 20 21  1  0
 21 22  2  0
 22 23  1  0
 23 24  2  0
 24 25  1  0
 14  6  1  0
 25 17  1  0
 12  8  2  0
 25 20  1  0
  3 26  1  0
  4 27  1  0
  7 28  1  0
  7 29  1  0
  9 30  1  0
 10 31  1  0
 13 32  1  0
 13 33  1  0
 14 34  1  0
 15 35  1  0
 16 36  1  0
 21 37  1  0
 22 38  1  0
 23 39  1  0
 24 40  1  0
M  END
>  <Energy>  (459) 
118.77176335032995

>  <compound_id>  (459) 
2629

>  <target_id>  (459) 
1

>  <reference_id>  (459) 
176

>  <inspiration_ids>  (459) 
[176, 170]

>  <energy_score>  (459) 
-58.262023755811896

>  <distance_score>  (459) 
2.406645041602408

>  <path>  (459) 
/opt/xchem-fragalysis-2/maxwin/BulkDock/SCRATCH/505736/C2629-P176/C2629-P176.minimised.mol

>  <scratch_subdir>  (459) 
/opt/xchem-fragalysis-2/maxwin/BulkDock/SCRATCH/505736/C2629-P176

>  <fragmenstein_runtime>  (459) 
3.9866182804107666

>  <fragmenstein_outcome>  (459) 
too moved

>  <fragmenstein_mode>  (459) 
expansion

>  <fragmenstein_error>  (459) 


$$$$
C2629-P170
     RDKit          3D

 40 43  0  0  0  0  0  0  0  0999 V2000
  -23.4415   -3.9575   11.6656 O   0  0  0  0  0  0  0  0  0  0  0  0
  -24.3215   -4.4077   12.4066 C   0  0  0  0  0  0  0  0  0  0  0  0
  -25.0041   -5.7469   12.1008 C   0  0  0  0  0  0  0  0  0  0  0  0
  -23.8693   -7.1111   12.4896 S   0  0  0  0  0  0  0  0  0  0  0  0
  -26.5420   -5.9619   12.9602 Cl  0  0  0  0  0  0  0  0  0  0  0  0
  -24.6200   -3.7472   13.5767 N   0  0  0  0  0  0  0  0  0  0  0  0
  -25.6492   -2.7069   13.5701 C   0  0  0  0  0  0  0  0  0  0  0  0
  -26.3484   -2.6108   14.8882 C   0  0  0  0  0  0  0  0  0  0  0  0
  -27.4276   -1.7320   15.2090 C   0  0  0  0  0  0  0  0  0  0  0  0
  -27.8259   -1.8542   16.5233 C   0  0  0  0  0  0  0  0  0  0  0  0
  -26.9120   -3.0262   17.3695 S   0  0  0  0  0  0  0  0  0  0  0  0
  -25.9865   -3.3613   15.9883 C   0  0  0  0  0  0  0  0  0  0  0  0
  -24.8921   -4.3752   15.9771 C   0  0  0  0  0  0  0  0  0  0  0  0
  -23.9115   -4.0848   14.8112 C   0  0  0  0  0  0  0  0  0  0  0  0
  -22.9866   -2.9528   15.0256 N   0  0  0  0  0  0  0  0  0  0  0  0
  -21.8965   -3.2962   15.8806 N   0  0  0  0  0  0  0  0  0  0  0  0
  -22.1143   -2.9091   17.1668 C   0  0  0  0  0  0  0  0  0  0  0  0
  -22.0817   -3.6764   18.2406 N   0  0  0  0  0  0  0  0  0  0  0  0
  -22.4395   -2.9101   19.3269 N   0  0  0  0  0  0  0  0  0  0  0  0
  -22.6126   -1.6733   18.9100 C   0  0  0  0  0  0  0  0  0  0  0  0
  -22.9471   -0.4669   19.5864 C   0  0  0  0  0  0  0  0  0  0  0  0
  -22.9909    0.6913   18.8987 C   0  0  0  0  0  0  0  0  0  0  0  0
  -22.7054    0.7401   17.4719 C   0  0  0  0  0  0  0  0  0  0  0  0
  -22.4131   -0.4028   16.8280 C   0  0  0  0  0  0  0  0  0  0  0  0
  -22.3813   -1.6019   17.5440 N   0  0  0  0  0  0  0  0  0  0  0  0
  -25.2334   -5.7652   11.0312 H   0  0  0  0  0  0  0  0  0  0  0  0
  -22.8071   -6.5907   11.8515 H   0  0  0  0  0  0  0  0  0  0  0  0
  -25.1437   -1.7580   13.3545 H   0  0  0  0  0  0  0  0  0  0  0  0
  -26.3575   -2.8950   12.7558 H   0  0  0  0  0  0  0  0  0  0  0  0
  -27.8867   -1.0367   14.5168 H   0  0  0  0  0  0  0  0  0  0  0  0
  -28.6122   -1.3129   17.0309 H   0  0  0  0  0  0  0  0  0  0  0  0
  -25.3475   -5.3607   15.8149 H   0  0  0  0  0  0  0  0  0  0  0  0
  -24.3749   -4.4250   16.9382 H   0  0  0  0  0  0  0  0  0  0  0  0
  -23.3143   -4.9837   14.6202 H   0  0  0  0  0  0  0  0  0  0  0  0
  -22.6098   -2.7400   14.0945 H   0  0  0  0  0  0  0  0  0  0  0  0
  -21.5153   -4.2396   15.7536 H   0  0  0  0  0  0  0  0  0  0  0  0
  -23.1598   -0.5098   20.6488 H   0  0  0  0  0  0  0  0  0  0  0  0
  -23.2441    1.6229   19.3961 H   0  0  0  0  0  0  0  0  0  0  0  0
  -22.7345    1.6959   16.9600 H   0  0  0  0  0  0  0  0  0  0  0  0
  -22.1880   -0.4481   15.7710 H   0  0  0  0  0  0  0  0  0  0  0  0
  1  2  2  0
  2  3  1  0
  3  4  1  0
  3  5  1  0
  2  6  1  0
  6  7  1  0
  7  8  1  0
  8  9  1  0
  9 10  2  0
 10 11  1  0
 11 12  1  0
 12 13  1  0
 13 14  1  0
 14 15  1  0
 15 16  1  0
 16 17  1  0
 17 18  2  0
 18 19  1  0
 19 20  2  0
 20 21  1  0
 21 22  2  0
 22 23  1  0
 23 24  2  0
 24 25  1  0
 14  6  1  0
 25 17  1  0
 12  8  2  0
 25 20  1  0
  3 26  1  0
  4 27  1  0
  7 28  1  0
  7 29  1  0
  9 30  1  0
 10 31  1  0
 13 32  1  0
 13 33  1  0
 14 34  1  0
 15 35  1  0
 16 36  1  0
 21 37  1  0
 22 38  1  0
 23 39  1  0
 24 40  1  0
M  END
>  <Energy>  (460) 
123.64903957010775

>  <compound_id>  (460) 
2629

>  <target_id>  (460) 
1

>  <reference_id>  (460) 
170

>  <inspiration_ids>  (460) 
[176, 170]

>  <energy_score>  (460) 
-53.384747536034354

>  <distance_score>  (460) 
2.6577827596490624

>  <path>  (460) 
/opt/xchem-fragalysis-2/maxwin/BulkDock/SCRATCH/505736/C2629-P170/C2629-P170.minimised.mol

>  <scratch_subdir>  (460) 
/opt/xchem-fragalysis-2/maxwin/BulkDock/SCRATCH/505736/C2629-P170

>  <fragmenstein_runtime>  (460) 
3.8651742935180664

>  <fragmenstein_outcome>  (460) 
too moved

>  <fragmenstein_mode>  (460) 
expansion

>  <fragmenstein_error>  (460) 


$$$$
C1024-P176
     RDKit          3D

 51 54  0  0  0  0  0  0  0  0999 V2000
  -21.5206    1.6044   18.4255 C   0  0  0  0  0  0  0  0  0  0  0  0
  -21.8386    0.3579   17.6013 C   0  0  0  0  0  0  0  0  0  0  0  0
  -21.5732    0.6355   16.1172 C   0  0  0  0  0  0  0  0  0  0  0  0
  -20.9763   -0.6919   18.0639 O   0  0  0  0  0  0  0  0  0  0  0  0
  -21.3048   -1.9744   17.8309 C   0  0  0  0  0  0  0  0  0  0  0  0
  -20.5283   -2.9116   17.9555 O   0  0  0  0  0  0  0  0  0  0  0  0
  -22.7239   -2.2046   17.5403 C   0  0  0  0  0  0  0  0  0  0  0  0
  -23.1922   -3.5050   17.3400 C   0  0  0  0  0  0  0  0  0  0  0  0
  -24.5656   -3.7494   17.2730 C   0  0  0  0  0  0  0  0  0  0  0  0
  -24.9114   -5.0690   17.1950 O   0  0  0  0  0  0  0  0  0  0  0  0
  -26.0040   -5.4582   18.0345 C   0  0  0  0  0  0  0  0  0  0  0  0
  -27.2855   -5.4060   17.3692 N   0  0  0  0  0  0  0  0  0  0  0  0
  -27.9637   -6.2665   16.8790 C   0  0  0  0  0  0  0  0  0  0  0  0
  -27.4703   -7.7767   16.9025 C   0  0  0  0  0  0  0  0  0  0  0  0
  -28.6684   -8.7749   17.8343 S   0  0  0  0  0  0  0  0  0  0  0  0
  -27.3504   -8.3583   15.2147 Cl  0  0  0  0  0  0  0  0  0  0  0  0
  -29.3392   -6.2285   16.1181 N   0  0  0  0  0  0  0  0  0  0  0  0
  -30.1642   -5.2470   15.6509 C   0  0  0  0  0  0  0  0  0  0  0  0
  -28.9071   -4.8802   14.2621 C   0  0  0  0  0  0  0  0  0  0  0  0
  -28.8581   -3.4289   14.4625 C   0  0  0  0  0  0  0  0  0  0  0  0
  -28.0413   -2.1404   13.8174 S   0  0  0  0  0  0  0  0  0  0  0  0
  -28.8752   -1.0738   14.9129 C   0  0  0  0  0  0  0  0  0  0  0  0
  -29.7713   -1.7429   15.7391 C   0  0  0  0  0  0  0  0  0  0  0  0
  -29.7347   -3.1113   15.4400 C   0  0  0  0  0  0  0  0  0  0  0  0
  -30.4583   -4.5707   15.9547 C   0  0  0  0  0  0  0  0  0  0  0  0
  -25.4538   -2.6731   17.2995 C   0  0  0  0  0  0  0  0  0  0  0  0
  -26.8023   -2.7925   17.1636 O   0  0  0  0  0  0  0  0  0  0  0  0
  -24.9829   -1.3779   17.4686 C   0  0  0  0  0  0  0  0  0  0  0  0
  -23.6182   -1.1496   17.5983 C   0  0  0  0  0  0  0  0  0  0  0  0
  -23.2368    0.1351   17.8038 O   0  0  0  0  0  0  0  0  0  0  0  0
  -21.6690    1.4018   19.4929 H   0  0  0  0  0  0  0  0  0  0  0  0
  -20.4849    1.9288   18.3021 H   0  0  0  0  0  0  0  0  0  0  0  0
  -22.1812    2.4377   18.1610 H   0  0  0  0  0  0  0  0  0  0  0  0
  -21.7944   -0.2439   15.5023 H   0  0  0  0  0  0  0  0  0  0  0  0
  -22.2064    1.4496   15.7482 H   0  0  0  0  0  0  0  0  0  0  0  0
  -20.5246    0.8893   15.9378 H   0  0  0  0  0  0  0  0  0  0  0  0
  -22.4924   -4.3343   17.2862 H   0  0  0  0  0  0  0  0  0  0  0  0
  -26.0426   -4.8292   18.9352 H   0  0  0  0  0  0  0  0  0  0  0  0
  -25.7665   -6.4472   18.4327 H   0  0  0  0  0  0  0  0  0  0  0  0
  -26.4861   -7.9066   17.3419 H   0  0  0  0  0  0  0  0  0  0  0  0
  -29.7170   -8.3783   17.0971 H   0  0  0  0  0  0  0  0  0  0  0  0
  -30.7560   -5.5763   14.5373 H   0  0  0  0  0  0  0  0  0  0  0  0
  -30.9407   -6.2552   15.7248 H   0  0  0  0  0  0  0  0  0  0  0  0
  -27.9492   -5.3786   14.4287 H   0  0  0  0  0  0  0  0  0  0  0  0
  -29.3414   -5.1515   13.2923 H   0  0  0  0  0  0  0  0  0  0  0  0
  -28.6519   -0.0161   14.8907 H   0  0  0  0  0  0  0  0  0  0  0  0
  -30.3756   -1.2563   16.4936 H   0  0  0  0  0  0  0  0  0  0  0  0
  -31.7198   -4.4988   15.9607 H   0  0  0  0  0  0  0  0  0  0  0  0
  -30.4024   -4.2438   17.1382 H   0  0  0  0  0  0  0  0  0  0  0  0
  -27.0197   -3.7159   16.9157 H   0  0  0  0  0  0  0  0  0  0  0  0
  -25.6842   -0.5482   17.5029 H   0  0  0  0  0  0  0  0  0  0  0  0
  1  2  1  0
  2  3  1  0
  2  4  1  0
  4  5  1  0
  5  6  2  0
  5  7  1  0
  7  8  2  0
  8  9  1  0
  9 10  1  0
 10 11  1  0
 11 12  1  0
 12 13  2  3
 13 14  1  0
 14 15  1  0
 14 16  1  0
 13 17  1  0
 17 18  1  0
 18 19  1  0
 19 20  1  0
 20 21  1  0
 21 22  1  0
 22 23  2  0
 23 24  1  0
 24 25  1  0
  9 26  2  0
 26 27  1  0
 26 28  1  0
 28 29  2  0
 29 30  1  0
 30  2  1  0
 29  7  1  0
 25 17  1  0
 24 20  2  0
  1 31  1  0
  1 32  1  0
  1 33  1  0
  3 34  1  0
  3 35  1  0
  3 36  1  0
  8 37  1  0
 11 38  1  0
 11 39  1  0
 14 40  1  0
 15 41  1  0
 18 42  1  0
 18 43  1  0
 19 44  1  0
 19 45  1  0
 22 46  1  0
 23 47  1  0
 25 48  1  0
 25 49  1  0
 27 50  1  0
 28 51  1  0
M  END
>  <Energy>  (461) 
781.0585345373413

>  <compound_id>  (461) 
1024

>  <target_id>  (461) 
1

>  <reference_id>  (461) 
176

>  <inspiration_ids>  (461) 
[176, 174]

>  <energy_score>  (461) 
615.3619881195476

>  <distance_score>  (461) 
3.123364873062029

>  <path>  (461) 
/opt/xchem-fragalysis-2/maxwin/BulkDock/SCRATCH/505736/C1024-P176/C1024-P176.minimised.mol

>  <scratch_subdir>  (461) 
/opt/xchem-fragalysis-2/maxwin/BulkDock/SCRATCH/505736/C1024-P176

>  <fragmenstein_runtime>  (461) 
4.268879175186157

>  <fragmenstein_outcome>  (461) 
too moved

>  <fragmenstein_mode>  (461) 
expansion

>  <fragmenstein_error>  (461) 


$$$$
C1024-P174
     RDKit          3D

 51 54  0  0  0  0  0  0  0  0999 V2000
  -20.9872    0.3296   16.1995 C   0  0  0  0  0  0  0  0  0  0  0  0
  -21.8801   -0.8970   16.3529 C   0  0  0  0  0  0  0  0  0  0  0  0
  -22.1976   -1.4744   14.9730 C   0  0  0  0  0  0  0  0  0  0  0  0
  -21.1370   -1.8805   17.0907 O   0  0  0  0  0  0  0  0  0  0  0  0
  -21.8146   -2.8162   17.7727 C   0  0  0  0  0  0  0  0  0  0  0  0
  -21.4317   -3.9642   17.9513 O   0  0  0  0  0  0  0  0  0  0  0  0
  -23.0686   -2.3562   18.3536 C   0  0  0  0  0  0  0  0  0  0  0  0
  -23.6889   -3.1130   19.3527 C   0  0  0  0  0  0  0  0  0  0  0  0
  -24.9318   -2.7090   19.8212 C   0  0  0  0  0  0  0  0  0  0  0  0
  -25.5524   -3.4481   20.7887 O   0  0  0  0  0  0  0  0  0  0  0  0
  -26.4779   -4.3823   20.2045 C   0  0  0  0  0  0  0  0  0  0  0  0
  -27.8024   -3.8750   19.9666 N   0  0  0  0  0  0  0  0  0  0  0  0
  -28.3970   -3.6411   18.9355 C   0  0  0  0  0  0  0  0  0  0  0  0
  -29.8267   -3.0436   19.1153 C   0  0  0  0  0  0  0  0  0  0  0  0
  -30.0620   -1.6035   18.0451 S   0  0  0  0  0  0  0  0  0  0  0  0
  -31.0029   -4.3235   18.7191 Cl  0  0  0  0  0  0  0  0  0  0  0  0
  -28.0441   -3.8848   17.4371 N   0  0  0  0  0  0  0  0  0  0  0  0
  -26.4481   -4.9295   16.7978 C   0  0  0  0  0  0  0  0  0  0  0  0
  -26.7476   -6.2128   15.5237 C   0  0  0  0  0  0  0  0  0  0  0  0
  -27.5843   -5.4396   14.6180 C   0  0  0  0  0  0  0  0  0  0  0  0
  -28.2852   -5.6139   13.1288 S   0  0  0  0  0  0  0  0  0  0  0  0
  -28.9487   -4.0039   13.2553 C   0  0  0  0  0  0  0  0  0  0  0  0
  -28.6072   -3.3726   14.4444 C   0  0  0  0  0  0  0  0  0  0  0  0
  -27.8186   -4.2494   15.2064 C   0  0  0  0  0  0  0  0  0  0  0  0
  -26.9327   -4.3087   16.7805 C   0  0  0  0  0  0  0  0  0  0  0  0
  -25.5177   -1.5406   19.3410 C   0  0  0  0  0  0  0  0  0  0  0  0
  -26.7352   -1.1277   19.7868 O   0  0  0  0  0  0  0  0  0  0  0  0
  -24.8837   -0.7778   18.3742 C   0  0  0  0  0  0  0  0  0  0  0  0
  -23.6529   -1.1943   17.8773 C   0  0  0  0  0  0  0  0  0  0  0  0
  -23.0960   -0.4109   16.9246 O   0  0  0  0  0  0  0  0  0  0  0  0
  -21.4754    1.1121   15.6080 H   0  0  0  0  0  0  0  0  0  0  0  0
  -20.7714    0.7638   17.1821 H   0  0  0  0  0  0  0  0  0  0  0  0
  -20.0332    0.0721   15.7287 H   0  0  0  0  0  0  0  0  0  0  0  0
  -22.8599   -2.3436   15.0607 H   0  0  0  0  0  0  0  0  0  0  0  0
  -22.7144   -0.7432   14.3421 H   0  0  0  0  0  0  0  0  0  0  0  0
  -21.2893   -1.8133   14.4634 H   0  0  0  0  0  0  0  0  0  0  0  0
  -23.2264   -4.0109   19.7509 H   0  0  0  0  0  0  0  0  0  0  0  0
  -26.5714   -5.1888   20.9411 H   0  0  0  0  0  0  0  0  0  0  0  0
  -26.0158   -4.8606   19.3456 H   0  0  0  0  0  0  0  0  0  0  0  0
  -29.9885   -2.7516   20.1573 H   0  0  0  0  0  0  0  0  0  0  0  0
  -29.6106   -2.2334   16.9504 H   0  0  0  0  0  0  0  0  0  0  0  0
  -26.4228   -5.7888   17.6706 H   0  0  0  0  0  0  0  0  0  0  0  0
  -25.2236   -4.6691   16.9677 H   0  0  0  0  0  0  0  0  0  0  0  0
  -25.7718   -6.4986   15.1233 H   0  0  0  0  0  0  0  0  0  0  0  0
  -27.2669   -7.0473   16.0044 H   0  0  0  0  0  0  0  0  0  0  0  0
  -29.5519   -3.6172   12.4455 H   0  0  0  0  0  0  0  0  0  0  0  0
  -28.9112   -2.3709   14.7167 H   0  0  0  0  0  0  0  0  0  0  0  0
  -26.4720   -3.2673   17.3555 H   0  0  0  0  0  0  0  0  0  0  0  0
  -26.4193   -3.3700   15.9900 H   0  0  0  0  0  0  0  0  0  0  0  0
  -27.0333   -1.7943   20.4393 H   0  0  0  0  0  0  0  0  0  0  0  0
  -25.3521    0.1312   18.0065 H   0  0  0  0  0  0  0  0  0  0  0  0
  1  2  1  0
  2  3  1  0
  2  4  1  0
  4  5  1  0
  5  6  2  0
  5  7  1  0
  7  8  2  0
  8  9  1  0
  9 10  1  0
 10 11  1  0
 11 12  1  0
 12 13  2  3
 13 14  1  0
 14 15  1  0
 14 16  1  0
 13 17  1  0
 17 18  1  0
 18 19  1  0
 19 20  1  0
 20 21  1  0
 21 22  1  0
 22 23  2  0
 23 24  1  0
 24 25  1  0
  9 26  2  0
 26 27  1  0
 26 28  1  0
 28 29  2  0
 29 30  1  0
 30  2  1  0
 29  7  1  0
 25 17  1  0
 24 20  2  0
  1 31  1  0
  1 32  1  0
  1 33  1  0
  3 34  1  0
  3 35  1  0
  3 36  1  0
  8 37  1  0
 11 38  1  0
 11 39  1  0
 14 40  1  0
 15 41  1  0
 18 42  1  0
 18 43  1  0
 19 44  1  0
 19 45  1  0
 22 46  1  0
 23 47  1  0
 25 48  1  0
 25 49  1  0
 27 50  1  0
 28 51  1  0
M  END
>  <Energy>  (462) 
807.76713305700548

>  <compound_id>  (462) 
1024

>  <target_id>  (462) 
1

>  <reference_id>  (462) 
174

>  <inspiration_ids>  (462) 
[176, 174]

>  <energy_score>  (462) 
642.0705866392105

>  <distance_score>  (462) 
2.913607090297553

>  <path>  (462) 
/opt/xchem-fragalysis-2/maxwin/BulkDock/SCRATCH/505736/C1024-P174/C1024-P174.minimised.mol

>  <scratch_subdir>  (462) 
/opt/xchem-fragalysis-2/maxwin/BulkDock/SCRATCH/505736/C1024-P174

>  <fragmenstein_runtime>  (462) 
4.196460008621216

>  <fragmenstein_outcome>  (462) 
too moved

>  <fragmenstein_mode>  (462) 
expansion

>  <fragmenstein_error>  (462) 


$$$$
C2631-P177
     RDKit          3D

 60 64  0  0  0  0  0  0  0  0999 V2000
   -0.8021   -3.4691   31.6086 C   0  0  0  0  0  0  0  0  0  0  0  0
   -0.6853   -4.0050   30.2834 N   0  0  0  0  0  0  0  0  0  0  0  0
    0.3694   -4.7475   29.6597 C   0  0  0  0  0  0  0  0  0  0  0  0
    1.3908   -5.1797   30.1082 O   0  0  0  0  0  0  0  0  0  0  0  0
    0.0391   -4.9731   28.1693 C   0  0  0  0  0  0  0  0  0  0  0  0
   -0.0575   -3.6682   27.3729 C   0  0  0  0  0  0  0  0  0  0  0  0
    1.0111   -2.4297   27.8548 C   0  0  0  0  0  0  0  0  0  0  0  0
    0.8896   -0.9649   27.2971 C   0  0  0  0  0  0  0  0  0  0  0  0
   -0.7160   -0.7495   26.3515 C   0  0  0  0  0  0  0  0  0  0  0  0
   -1.0863    0.0734   27.4427 C   0  0  0  0  0  0  0  0  0  0  0  0
   -2.1804    0.8786   27.5274 C   0  0  0  0  0  0  0  0  0  0  0  0
   -3.4217    0.4191   27.0686 N   0  0  0  0  0  0  0  0  0  0  0  0
   -5.2054    1.1036   27.0912 C   0  0  0  0  0  0  0  0  0  0  0  0
   -5.4677    2.1515   26.2159 N   0  0  0  0  0  0  0  0  0  0  0  0
   -6.4862   -0.2692   27.9110 N   0  0  0  0  0  0  0  0  0  0  0  0
   -4.8743   -1.8025   28.1510 N   0  0  0  0  0  0  0  0  0  0  0  0
   -3.3667   -1.2819   27.7360 C   0  0  0  0  0  0  0  0  0  0  0  0
   -2.0400   -1.9471   27.9596 C   0  0  0  0  0  0  0  0  0  0  0  0
   -0.9415   -1.5425   27.0721 C   0  0  0  0  0  0  0  0  0  0  0  0
    0.1440   -2.1959   25.4885 N   0  0  0  0  0  0  0  0  0  0  0  0
    0.2693   -2.1969   23.4712 C   0  0  0  0  0  0  0  0  0  0  0  0
    0.4531   -3.6239   24.1114 C   0  0  0  0  0  0  0  0  0  0  0  0
    1.8727   -3.6710   24.8554 C   0  0  0  0  0  0  0  0  0  0  0  0
    2.7146   -4.1921   26.2305 S   0  0  0  0  0  0  0  0  0  0  0  0
    4.0399   -3.1750   25.8639 C   0  0  0  0  0  0  0  0  0  0  0  0
    3.9396   -2.7282   24.5651 C   0  0  0  0  0  0  0  0  0  0  0  0
    2.7733   -3.2768   23.9449 C   0  0  0  0  0  0  0  0  0  0  0  0
    2.1064   -3.5372   22.4523 C   0  0  0  0  0  0  0  0  0  0  0  0
    0.7374   -2.8448   21.5745 N   0  0  0  0  0  0  0  0  0  0  0  0
    1.3915   -1.8133   19.8839 C   0  0  0  0  0  0  0  0  0  0  0  0
    1.7039   -0.6419   19.7505 O   0  0  0  0  0  0  0  0  0  0  0  0
    1.4314   -2.6039   18.2577 C   0  0  0  0  0  0  0  0  0  0  0  0
    3.5692   -3.0296   17.6688 S   0  0  0  0  0  0  0  0  0  0  0  0
    0.5082   -1.1805   17.2901 Cl  0  0  0  0  0  0  0  0  0  0  0  0
   -1.8543   -2.0491   25.5215 C   0  0  0  0  0  0  0  0  0  0  0  0
   -1.3367   -3.5523   26.1980 C   0  0  0  0  0  0  0  0  0  0  0  0
   -0.4251   -4.2003   32.3274 H   0  0  0  0  0  0  0  0  0  0  0  0
   -1.8481   -3.2304   31.8070 H   0  0  0  0  0  0  0  0  0  0  0  0
   -0.1962   -2.5615   31.6669 H   0  0  0  0  0  0  0  0  0  0  0  0
   -1.3596   -3.7324   29.5765 H   0  0  0  0  0  0  0  0  0  0  0  0
    0.8122   -5.6167   27.7500 H   0  0  0  0  0  0  0  0  0  0  0  0
   -0.9023   -5.5248   28.0994 H   0  0  0  0  0  0  0  0  0  0  0  0
    1.7550   -2.6506   28.6194 H   0  0  0  0  0  0  0  0  0  0  0  0
    1.3995   -0.1106   27.7362 H   0  0  0  0  0  0  0  0  0  0  0  0
   -2.1789    1.8180   28.0680 H   0  0  0  0  0  0  0  0  0  0  0  0
   -4.8796    2.2433   25.3887 H   0  0  0  0  0  0  0  0  0  0  0  0
   -6.4586    2.2396   25.9809 H   0  0  0  0  0  0  0  0  0  0  0  0
   -1.8317   -1.7377   29.0132 H   0  0  0  0  0  0  0  0  0  0  0  0
    1.1209   -1.9622   25.7062 H   0  0  0  0  0  0  0  0  0  0  0  0
   -0.8063   -2.1148   23.2556 H   0  0  0  0  0  0  0  0  0  0  0  0
   -0.5015   -3.9305   24.4656 H   0  0  0  0  0  0  0  0  0  0  0  0
    0.4316   -4.3314   23.3307 H   0  0  0  0  0  0  0  0  0  0  0  0
    4.8511   -3.0257   26.5627 H   0  0  0  0  0  0  0  0  0  0  0  0
    4.7206   -2.1579   24.0773 H   0  0  0  0  0  0  0  0  0  0  0  0
    1.7105   -4.5383   22.4147 H   0  0  0  0  0  0  0  0  0  0  0  0
    1.9379   -2.6735   22.9998 H   0  0  0  0  0  0  0  0  0  0  0  0
    2.1152   -1.7646   18.0937 H   0  0  0  0  0  0  0  0  0  0  0  0
    4.0821   -1.8486   18.0600 H   0  0  0  0  0  0  0  0  0  0  0  0
   -2.8588   -1.9308   25.1680 H   0  0  0  0  0  0  0  0  0  0  0  0
   -1.7946   -4.4742   25.8629 H   0  0  0  0  0  0  0  0  0  0  0  0
  1  2  1  0
  2  3  1  0
  3  4  2  0
  3  5  1  0
  5  6  1  0
  6  7  2  0
  7  8  1  0
  8  9  2  0
  9 10  1  0
 10 11  2  0
 11 12  1  0
 12 13  1  0
 13 14  1  0
 13 15  2  0
 15 16  1  0
 16 17  2  0
 17 18  1  0
 18 19  2  0
 19 20  1  0
 20 21  1  0
 21 22  1  0
 22 23  1  0
 23 24  1  0
 24 25  1  0
 25 26  2  0
 26 27  1  0
 27 28  1  0
 28 29  1  0
 29 30  1  0
 30 31  2  0
 30 32  1  0
 32 33  1  0
 32 34  1  0
  9 35  1  0
 35 36  2  0
 36  6  1  0
 19 10  1  0
 29 21  1  0
 17 12  1  0
 27 23  2  0
  1 37  1  0
  1 38  1  0
  1 39  1  0
  2 40  1  0
  5 41  1  0
  5 42  1  0
  7 43  1  0
  8 44  1  0
 11 45  1  0
 14 46  1  0
 14 47  1  0
 18 48  1  0
 20 49  1  0
 21 50  1  0
 22 51  1  0
 22 52  1  0
 25 53  1  0
 26 54  1  0
 28 55  1  0
 28 56  1  0
 32 57  1  0
 33 58  1  0
 35 59  1  0
 36 60  1  0
M  END
>  <Energy>  (463) 
2860.9397515041451

>  <compound_id>  (463) 
2631

>  <target_id>  (463) 
1

>  <reference_id>  (463) 
177

>  <inspiration_ids>  (463) 
[177, 13]

>  <energy_score>  (463) 
2707.668682780742

>  <distance_score>  (463) 
5.461681188791026

>  <path>  (463) 
/opt/xchem-fragalysis-2/maxwin/BulkDock/SCRATCH/505736/C2631-P177/C2631-P177.minimised.mol

>  <scratch_subdir>  (463) 
/opt/xchem-fragalysis-2/maxwin/BulkDock/SCRATCH/505736/C2631-P177

>  <fragmenstein_runtime>  (463) 
35.65171957015991

>  <fragmenstein_outcome>  (463) 
too moved

>  <fragmenstein_mode>  (463) 
expansion

>  <fragmenstein_error>  (463) 


$$$$
C2631-P13
     RDKit          3D

 60 64  0  0  0  0  0  0  0  0999 V2000
   -0.6173   -3.7508   34.7466 C   0  0  0  0  0  0  0  0  0  0  0  0
    0.3063   -4.1196   33.7126 N   0  0  0  0  0  0  0  0  0  0  0  0
    0.1079   -4.8367   32.4853 C   0  0  0  0  0  0  0  0  0  0  0  0
   -0.8644   -5.3806   32.0453 O   0  0  0  0  0  0  0  0  0  0  0  0
    1.4202   -4.9035   31.7104 C   0  0  0  0  0  0  0  0  0  0  0  0
    1.7969   -3.6432   30.9625 C   0  0  0  0  0  0  0  0  0  0  0  0
    2.5912   -2.2419   31.8335 C   0  0  0  0  0  0  0  0  0  0  0  0
    3.1970   -0.7952   30.9112 C   0  0  0  0  0  0  0  0  0  0  0  0
    2.8848   -0.7153   29.0928 C   0  0  0  0  0  0  0  0  0  0  0  0
    1.5525   -0.4344   29.3202 C   0  0  0  0  0  0  0  0  0  0  0  0
    0.5959    0.3728   28.8849 C   0  0  0  0  0  0  0  0  0  0  0  0
   -0.6501    0.0480   29.3530 N   0  0  0  0  0  0  0  0  0  0  0  0
   -1.8839    0.5677   29.0973 C   0  0  0  0  0  0  0  0  0  0  0  0
   -2.0907    1.5148   28.1527 N   0  0  0  0  0  0  0  0  0  0  0  0
   -2.7216    0.0782   29.9864 N   0  0  0  0  0  0  0  0  0  0  0  0
   -2.0952   -0.8874   30.7251 N   0  0  0  0  0  0  0  0  0  0  0  0
   -0.8572   -0.9392   30.2956 C   0  0  0  0  0  0  0  0  0  0  0  0
    0.2184   -1.8188   30.6122 C   0  0  0  0  0  0  0  0  0  0  0  0
    1.5087   -1.6732   30.0615 C   0  0  0  0  0  0  0  0  0  0  0  0
    3.2251   -2.5966   29.8992 N   0  0  0  0  0  0  0  0  0  0  0  0
    4.0622   -3.9633   29.9164 C   0  0  0  0  0  0  0  0  0  0  0  0
    4.9451   -3.8061   31.2687 C   0  0  0  0  0  0  0  0  0  0  0  0
    6.2997   -4.3372   31.0666 C   0  0  0  0  0  0  0  0  0  0  0  0
    7.6250   -4.1846   32.0857 S   0  0  0  0  0  0  0  0  0  0  0  0
    8.6434   -4.9215   30.9104 C   0  0  0  0  0  0  0  0  0  0  0  0
    7.9488   -5.2893   29.7754 C   0  0  0  0  0  0  0  0  0  0  0  0
    6.5813   -4.9479   29.8915 C   0  0  0  0  0  0  0  0  0  0  0  0
    5.4586   -5.0962   28.9682 C   0  0  0  0  0  0  0  0  0  0  0  0
    4.8621   -3.7686   28.5635 N   0  0  0  0  0  0  0  0  0  0  0  0
    4.4288   -3.8282   27.2053 C   0  0  0  0  0  0  0  0  0  0  0  0
    3.3583   -4.1340   26.7340 O   0  0  0  0  0  0  0  0  0  0  0  0
    5.5679   -3.2997   26.2828 C   0  0  0  0  0  0  0  0  0  0  0  0
    4.8262   -2.1291   25.1051 S   0  0  0  0  0  0  0  0  0  0  0  0
    6.8430   -2.4376   27.1771 Cl  0  0  0  0  0  0  0  0  0  0  0  0
    2.1889   -2.1653   28.1845 C   0  0  0  0  0  0  0  0  0  0  0  0
    1.5739   -3.5916   29.1405 C   0  0  0  0  0  0  0  0  0  0  0  0
   -0.0625   -3.3117   35.5782 H   0  0  0  0  0  0  0  0  0  0  0  0
   -1.3261   -3.0267   34.3392 H   0  0  0  0  0  0  0  0  0  0  0  0
   -1.1471   -4.6460   35.0769 H   0  0  0  0  0  0  0  0  0  0  0  0
    1.2363   -3.7224   33.7156 H   0  0  0  0  0  0  0  0  0  0  0  0
    1.3445   -5.7274   30.9907 H   0  0  0  0  0  0  0  0  0  0  0  0
    2.2336   -5.1795   32.3905 H   0  0  0  0  0  0  0  0  0  0  0  0
    2.7876   -2.2926   32.9000 H   0  0  0  0  0  0  0  0  0  0  0  0
    3.7700   -0.0146   31.4006 H   0  0  0  0  0  0  0  0  0  0  0  0
    0.7201    1.1995   28.2024 H   0  0  0  0  0  0  0  0  0  0  0  0
   -1.7625    1.3087   27.2143 H   0  0  0  0  0  0  0  0  0  0  0  0
   -3.0412    1.8952   28.1195 H   0  0  0  0  0  0  0  0  0  0  0  0
   -0.1352   -2.6216   31.2359 H   0  0  0  0  0  0  0  0  0  0  0  0
    3.9839   -2.0520   29.4721 H   0  0  0  0  0  0  0  0  0  0  0  0
    3.4167   -4.8497   29.8862 H   0  0  0  0  0  0  0  0  0  0  0  0
    5.0654   -2.7513   31.5378 H   0  0  0  0  0  0  0  0  0  0  0  0
    4.4472   -4.3210   32.0964 H   0  0  0  0  0  0  0  0  0  0  0  0
    9.6993   -5.0427   31.1123 H   0  0  0  0  0  0  0  0  0  0  0  0
    8.4170   -5.7572   28.9176 H   0  0  0  0  0  0  0  0  0  0  0  0
    4.7686   -5.9306   29.1751 H   0  0  0  0  0  0  0  0  0  0  0  0
    5.9203   -5.4755   28.0399 H   0  0  0  0  0  0  0  0  0  0  0  0
    5.9938   -4.1680   25.7737 H   0  0  0  0  0  0  0  0  0  0  0  0
    3.8426   -2.9880   24.8429 H   0  0  0  0  0  0  0  0  0  0  0  0
    2.0687   -2.0962   27.1220 H   0  0  0  0  0  0  0  0  0  0  0  0
    1.1124   -4.4210   28.6190 H   0  0  0  0  0  0  0  0  0  0  0  0
  1  2  1  0
  2  3  1  0
  3  4  2  0
  3  5  1  0
  5  6  1  0
  6  7  2  0
  7  8  1  0
  8  9  2  0
  9 10  1  0
 10 11  2  0
 11 12  1  0
 12 13  1  0
 13 14  1  0
 13 15  2  0
 15 16  1  0
 16 17  2  0
 17 18  1  0
 18 19  2  0
 19 20  1  0
 20 21  1  0
 21 22  1  0
 22 23  1  0
 23 24  1  0
 24 25  1  0
 25 26  2  0
 26 27  1  0
 27 28  1  0
 28 29  1  0
 29 30  1  0
 30 31  2  0
 30 32  1  0
 32 33  1  0
 32 34  1  0
  9 35  1  0
 35 36  2  0
 36  6  1  0
 19 10  1  0
 29 21  1  0
 17 12  1  0
 27 23  2  0
  1 37  1  0
  1 38  1  0
  1 39  1  0
  2 40  1  0
  5 41  1  0
  5 42  1  0
  7 43  1  0
  8 44  1  0
 11 45  1  0
 14 46  1  0
 14 47  1  0
 18 48  1  0
 20 49  1  0
 21 50  1  0
 22 51  1  0
 22 52  1  0
 25 53  1  0
 26 54  1  0
 28 55  1  0
 28 56  1  0
 32 57  1  0
 33 58  1  0
 35 59  1  0
 36 60  1  0
M  END
>  <Energy>  (464) 
1161.4353609933792

>  <compound_id>  (464) 
2631

>  <target_id>  (464) 
1

>  <reference_id>  (464) 
13

>  <inspiration_ids>  (464) 
[177, 13]

>  <energy_score>  (464) 
1008.16429226997

>  <distance_score>  (464) 
6.725162007153871

>  <path>  (464) 
/opt/xchem-fragalysis-2/maxwin/BulkDock/SCRATCH/505736/C2631-P13/C2631-P13.minimised.mol

>  <scratch_subdir>  (464) 
/opt/xchem-fragalysis-2/maxwin/BulkDock/SCRATCH/505736/C2631-P13

>  <fragmenstein_runtime>  (464) 
35.45934271812439

>  <fragmenstein_outcome>  (464) 
too moved

>  <fragmenstein_mode>  (464) 
expansion

>  <fragmenstein_error>  (464) 


$$$$
C2632-P177
     RDKit          3D

 58 62  0  0  0  0  0  0  0  0999 V2000
    7.7976   -9.1891   27.4462 C   0  0  0  0  0  0  0  0  0  0  0  0
    7.4806   -9.4689   25.7166 S   0  0  0  0  0  0  0  0  0  0  0  0
    7.0928  -10.8597   25.5949 O   0  0  0  0  0  0  0  0  0  0  0  0
    8.6026   -8.9631   24.9514 O   0  0  0  0  0  0  0  0  0  0  0  0
    6.1195   -8.5280   25.4364 N   0  0  0  0  0  0  0  0  0  0  0  0
    6.0750   -7.1192   25.7012 C   0  0  0  0  0  0  0  0  0  0  0  0
    7.1929   -6.3004   25.7939 C   0  0  0  0  0  0  0  0  0  0  0  0
    7.0581   -4.9416   26.0972 C   0  0  0  0  0  0  0  0  0  0  0  0
    5.8080   -4.3641   26.2259 C   0  0  0  0  0  0  0  0  0  0  0  0
    4.6690   -5.1673   26.1386 C   0  0  0  0  0  0  0  0  0  0  0  0
    3.4066   -4.6458   26.6845 C   0  0  0  0  0  0  0  0  0  0  0  0
    3.5264   -4.5662   28.0515 C   0  0  0  0  0  0  0  0  0  0  0  0
    2.4172   -4.4904   28.8879 N   0  0  0  0  0  0  0  0  0  0  0  0
    2.2176   -4.4261   30.2654 C   0  0  0  0  0  0  0  0  0  0  0  0
    3.1929   -4.1867   31.1709 N   0  0  0  0  0  0  0  0  0  0  0  0
    0.9503   -4.6563   30.5370 N   0  0  0  0  0  0  0  0  0  0  0  0
    0.2768   -4.7464   29.3466 N   0  0  0  0  0  0  0  0  0  0  0  0
    1.1617   -4.5912   28.3854 C   0  0  0  0  0  0  0  0  0  0  0  0
    1.0371   -4.4386   26.9932 C   0  0  0  0  0  0  0  0  0  0  0  0
    2.0551   -4.4128   26.0316 C   0  0  0  0  0  0  0  0  0  0  0  0
    1.6411   -4.1482   24.4071 N   0  0  0  0  0  0  0  0  0  0  0  0
    2.1063   -3.3349   22.9877 C   0  0  0  0  0  0  0  0  0  0  0  0
    3.2193   -2.5662   23.9973 C   0  0  0  0  0  0  0  0  0  0  0  0
    2.3143   -1.9929   25.0291 C   0  0  0  0  0  0  0  0  0  0  0  0
    2.7675   -1.4226   26.5842 S   0  0  0  0  0  0  0  0  0  0  0  0
    1.1164   -1.5082   27.1084 C   0  0  0  0  0  0  0  0  0  0  0  0
    0.2518   -1.9872   26.1217 C   0  0  0  0  0  0  0  0  0  0  0  0
    0.9266   -2.1440   24.7803 C   0  0  0  0  0  0  0  0  0  0  0  0
    0.1414   -2.3740   23.1086 C   0  0  0  0  0  0  0  0  0  0  0  0
    0.8920   -2.9323   21.5167 N   0  0  0  0  0  0  0  0  0  0  0  0
    1.1961   -1.8236   19.8065 C   0  0  0  0  0  0  0  0  0  0  0  0
    2.1845   -1.2212   19.5962 O   0  0  0  0  0  0  0  0  0  0  0  0
    0.1002   -1.5567   18.5115 C   0  0  0  0  0  0  0  0  0  0  0  0
    0.6248   -1.2810   16.8420 S   0  0  0  0  0  0  0  0  0  0  0  0
    0.6823    0.5837   18.2859 Cl  0  0  0  0  0  0  0  0  0  0  0  0
    4.8122   -6.5423   25.8678 C   0  0  0  0  0  0  0  0  0  0  0  0
    8.6291   -9.8362   27.7319 H   0  0  0  0  0  0  0  0  0  0  0  0
    8.0833   -8.1527   27.6200 H   0  0  0  0  0  0  0  0  0  0  0  0
    6.9070   -9.4521   28.0183 H   0  0  0  0  0  0  0  0  0  0  0  0
    5.7332   -8.7785   24.5060 H   0  0  0  0  0  0  0  0  0  0  0  0
    8.1980   -6.6726   25.6245 H   0  0  0  0  0  0  0  0  0  0  0  0
    7.9446   -4.3225   26.2084 H   0  0  0  0  0  0  0  0  0  0  0  0
    5.7301   -3.3044   26.4584 H   0  0  0  0  0  0  0  0  0  0  0  0
    4.4694   -4.6870   28.5731 H   0  0  0  0  0  0  0  0  0  0  0  0
    3.9656   -3.5929   30.8802 H   0  0  0  0  0  0  0  0  0  0  0  0
    2.8435   -3.9097   32.0861 H   0  0  0  0  0  0  0  0  0  0  0  0
   -0.0069   -4.2224   26.7883 H   0  0  0  0  0  0  0  0  0  0  0  0
    0.7395   -4.5336   24.1945 H   0  0  0  0  0  0  0  0  0  0  0  0
    2.5732   -4.0594   22.4466 H   0  0  0  0  0  0  0  0  0  0  0  0
    4.1043   -2.0271   23.6604 H   0  0  0  0  0  0  0  0  0  0  0  0
    3.7763   -3.3414   24.5170 H   0  0  0  0  0  0  0  0  0  0  0  0
    0.8671   -1.2288   28.1225 H   0  0  0  0  0  0  0  0  0  0  0  0
   -0.8183   -2.0966   26.2708 H   0  0  0  0  0  0  0  0  0  0  0  0
   -0.8275   -1.8952   22.9746 H   0  0  0  0  0  0  0  0  0  0  0  0
   -0.2988   -3.2721   23.5278 H   0  0  0  0  0  0  0  0  0  0  0  0
   -0.9661   -1.6555   18.4054 H   0  0  0  0  0  0  0  0  0  0  0  0
    0.1548   -0.0354   16.7183 H   0  0  0  0  0  0  0  0  0  0  0  0
    3.9388   -7.1865   25.8544 H   0  0  0  0  0  0  0  0  0  0  0  0
  1  2  1  0
  2  3  2  0
  2  4  2  0
  2  5  1  0
  5  6  1  0
  6  7  2  0
  7  8  1  0
  8  9  2  0
  9 10  1  0
 10 11  1  0
 11 12  2  0
 12 13  1  0
 13 14  1  0
 14 15  1  0
 14 16  2  0
 16 17  1  0
 17 18  2  0
 18 19  1  0
 19 20  2  0
 20 21  1  0
 21 22  1  0
 22 23  1  0
 23 24  1  0
 24 25  1  0
 25 26  1  0
 26 27  2  0
 27 28  1  0
 28 29  1  0
 29 30  1  0
 30 31  1  0
 31 32  2  0
 31 33  1  0
 33 34  1  0
 33 35  1  0
 10 36  2  0
 36  6  1  0
 20 11  1  0
 30 22  1  0
 18 13  1  0
 28 24  2  0
  1 37  1  0
  1 38  1  0
  1 39  1  0
  5 40  1  0
  7 41  1  0
  8 42  1  0
  9 43  1  0
 12 44  1  0
 15 45  1  0
 15 46  1  0
 19 47  1  0
 21 48  1  0
 22 49  1  0
 23 50  1  0
 23 51  1  0
 26 52  1  0
 27 53  1  0
 29 54  1  0
 29 55  1  0
 33 56  1  0
 34 57  1  0
 36 58  1  0
M  END
>  <Energy>  (465) 
767.84594694194845

>  <compound_id>  (465) 
2632

>  <target_id>  (465) 
1

>  <reference_id>  (465) 
177

>  <inspiration_ids>  (465) 
[177, 25]

>  <energy_score>  (465) 
651.7637723117206

>  <distance_score>  (465) 
6.785102415725084

>  <path>  (465) 
/opt/xchem-fragalysis-2/maxwin/BulkDock/SCRATCH/505736/C2632-P177/C2632-P177.minimised.mol

>  <scratch_subdir>  (465) 
/opt/xchem-fragalysis-2/maxwin/BulkDock/SCRATCH/505736/C2632-P177

>  <fragmenstein_runtime>  (465) 
33.22738289833069

>  <fragmenstein_outcome>  (465) 
too moved

>  <fragmenstein_mode>  (465) 
expansion

>  <fragmenstein_error>  (465) 


$$$$
C2632-P25
     RDKit          3D

 58 62  0  0  0  0  0  0  0  0999 V2000
    8.8505   -4.3055   31.5837 C   0  0  0  0  0  0  0  0  0  0  0  0
    7.3873   -4.6370   32.5381 S   0  0  0  0  0  0  0  0  0  0  0  0
    7.7969   -4.8671   33.9078 O   0  0  0  0  0  0  0  0  0  0  0  0
    6.5716   -5.5996   31.8319 O   0  0  0  0  0  0  0  0  0  0  0  0
    6.6661   -3.1108   32.5383 N   0  0  0  0  0  0  0  0  0  0  0  0
    5.4180   -2.8978   31.8810 C   0  0  0  0  0  0  0  0  0  0  0  0
    5.2574   -1.7080   31.1718 C   0  0  0  0  0  0  0  0  0  0  0  0
    4.0120   -1.3663   30.6403 C   0  0  0  0  0  0  0  0  0  0  0  0
    2.9138   -2.2041   30.8390 C   0  0  0  0  0  0  0  0  0  0  0  0
    3.0582   -3.3911   31.5665 C   0  0  0  0  0  0  0  0  0  0  0  0
    1.9102   -4.2964   31.7601 C   0  0  0  0  0  0  0  0  0  0  0  0
    1.4749   -4.4515   33.0361 C   0  0  0  0  0  0  0  0  0  0  0  0
    0.4103   -5.3076   33.3120 N   0  0  0  0  0  0  0  0  0  0  0  0
   -0.1330   -5.7807   34.4938 C   0  0  0  0  0  0  0  0  0  0  0  0
    0.2688   -5.3719   35.7170 N   0  0  0  0  0  0  0  0  0  0  0  0
   -1.0369   -6.6981   34.2242 N   0  0  0  0  0  0  0  0  0  0  0  0
   -1.1549   -6.7981   32.8602 N   0  0  0  0  0  0  0  0  0  0  0  0
   -0.3063   -5.9487   32.3292 C   0  0  0  0  0  0  0  0  0  0  0  0
    0.0808   -5.7301   30.9926 C   0  0  0  0  0  0  0  0  0  0  0  0
    1.2303   -5.0733   30.6870 C   0  0  0  0  0  0  0  0  0  0  0  0
    1.8037   -5.4337   29.4554 N   0  0  0  0  0  0  0  0  0  0  0  0
    2.9425   -5.0339   28.6253 C   0  0  0  0  0  0  0  0  0  0  0  0
    4.3227   -5.7694   28.7237 C   0  0  0  0  0  0  0  0  0  0  0  0
    5.2536   -4.9260   27.9690 C   0  0  0  0  0  0  0  0  0  0  0  0
    6.9197   -4.8265   28.1366 S   0  0  0  0  0  0  0  0  0  0  0  0
    6.9510   -3.4289   27.1429 C   0  0  0  0  0  0  0  0  0  0  0  0
    5.7025   -3.1125   26.6440 C   0  0  0  0  0  0  0  0  0  0  0  0
    4.7114   -3.9997   27.1440 C   0  0  0  0  0  0  0  0  0  0  0  0
    3.2252   -3.9835   26.9325 C   0  0  0  0  0  0  0  0  0  0  0  0
    2.2603   -5.1915   27.2950 N   0  0  0  0  0  0  0  0  0  0  0  0
    0.7933   -4.8785   26.8674 C   0  0  0  0  0  0  0  0  0  0  0  0
   -0.0911   -4.3470   27.5201 O   0  0  0  0  0  0  0  0  0  0  0  0
    0.3185   -5.2875   24.8490 C   0  0  0  0  0  0  0  0  0  0  0  0
    0.9867   -6.1747   23.4296 S   0  0  0  0  0  0  0  0  0  0  0  0
    1.3566   -4.0008   23.2340 Cl  0  0  0  0  0  0  0  0  0  0  0  0
    4.3100   -3.7121   32.1139 C   0  0  0  0  0  0  0  0  0  0  0  0
    9.4508   -3.5577   32.1055 H   0  0  0  0  0  0  0  0  0  0  0  0
    9.4132   -5.2369   31.4932 H   0  0  0  0  0  0  0  0  0  0  0  0
    8.5606   -3.9470   30.5965 H   0  0  0  0  0  0  0  0  0  0  0  0
    6.7236   -2.6931   33.4695 H   0  0  0  0  0  0  0  0  0  0  0  0
    6.1023   -1.0400   31.0243 H   0  0  0  0  0  0  0  0  0  0  0  0
    3.8971   -0.4445   30.0746 H   0  0  0  0  0  0  0  0  0  0  0  0
    1.9485   -1.9331   30.4137 H   0  0  0  0  0  0  0  0  0  0  0  0
    1.9320   -3.9642   33.8887 H   0  0  0  0  0  0  0  0  0  0  0  0
    0.4989   -4.3893   35.8315 H   0  0  0  0  0  0  0  0  0  0  0  0
   -0.3542   -5.6742   36.4644 H   0  0  0  0  0  0  0  0  0  0  0  0
   -0.4284   -6.3408   30.2584 H   0  0  0  0  0  0  0  0  0  0  0  0
    1.0747   -5.7660   28.8337 H   0  0  0  0  0  0  0  0  0  0  0  0
    3.0447   -3.9980   28.9741 H   0  0  0  0  0  0  0  0  0  0  0  0
    4.2854   -6.7846   28.3227 H   0  0  0  0  0  0  0  0  0  0  0  0
    4.7460   -5.7474   29.7267 H   0  0  0  0  0  0  0  0  0  0  0  0
    7.8899   -2.9358   26.9329 H   0  0  0  0  0  0  0  0  0  0  0  0
    5.5309   -2.2853   25.9650 H   0  0  0  0  0  0  0  0  0  0  0  0
    2.7952   -3.0257   27.2558 H   0  0  0  0  0  0  0  0  0  0  0  0
    3.3202   -4.1363   25.8554 H   0  0  0  0  0  0  0  0  0  0  0  0
   -0.7569   -5.2961   24.5777 H   0  0  0  0  0  0  0  0  0  0  0  0
    1.0122   -5.3392   22.3886 H   0  0  0  0  0  0  0  0  0  0  0  0
    4.4137   -4.6133   32.7131 H   0  0  0  0  0  0  0  0  0  0  0  0
  1  2  1  0
  2  3  2  0
  2  4  2  0
  2  5  1  0
  5  6  1  0
  6  7  2  0
  7  8  1  0
  8  9  2  0
  9 10  1  0
 10 11  1  0
 11 12  2  0
 12 13  1  0
 13 14  1  0
 14 15  1  0
 14 16  2  0
 16 17  1  0
 17 18  2  0
 18 19  1  0
 19 20  2  0
 20 21  1  0
 21 22  1  0
 22 23  1  0
 23 24  1  0
 24 25  1  0
 25 26  1  0
 26 27  2  0
 27 28  1  0
 28 29  1  0
 29 30  1  0
 30 31  1  0
 31 32  2  0
 31 33  1  0
 33 34  1  0
 33 35  1  0
 10 36  2  0
 36  6  1  0
 20 11  1  0
 30 22  1  0
 18 13  1  0
 28 24  2  0
  1 37  1  0
  1 38  1  0
  1 39  1  0
  5 40  1  0
  7 41  1  0
  8 42  1  0
  9 43  1  0
 12 44  1  0
 15 45  1  0
 15 46  1  0
 19 47  1  0
 21 48  1  0
 22 49  1  0
 23 50  1  0
 23 51  1  0
 26 52  1  0
 27 53  1  0
 29 54  1  0
 29 55  1  0
 33 56  1  0
 34 57  1  0
 36 58  1  0
M  END
>  <Energy>  (466) 
327.58583040416653

>  <compound_id>  (466) 
2632

>  <target_id>  (466) 
1

>  <reference_id>  (466) 
25

>  <inspiration_ids>  (466) 
[177, 25]

>  <energy_score>  (466) 
211.50365577395632

>  <distance_score>  (466) 
5.786718389685947

>  <path>  (466) 
/opt/xchem-fragalysis-2/maxwin/BulkDock/SCRATCH/505736/C2632-P25/C2632-P25.minimised.mol

>  <scratch_subdir>  (466) 
/opt/xchem-fragalysis-2/maxwin/BulkDock/SCRATCH/505736/C2632-P25

>  <fragmenstein_runtime>  (466) 
31.280237674713135

>  <fragmenstein_outcome>  (466) 
too moved

>  <fragmenstein_mode>  (466) 
expansion

>  <fragmenstein_error>  (466) 


$$$$
C2633-P177
     RDKit          3D

 60 63  0  0  0  0  0  0  0  0999 V2000
    1.8099   -5.5481   32.1276 O   0  0  0  0  0  0  0  0  0  0  0  0
    0.9356   -5.7948   31.4557 C   0  0  0  0  0  0  0  0  0  0  0  0
   -0.3106   -6.4565   31.7473 N   0  0  0  0  0  0  0  0  0  0  0  0
   -0.8617   -6.9197   33.0037 C   0  0  0  0  0  0  0  0  0  0  0  0
    0.0441   -6.8575   34.2377 C   0  0  0  0  0  0  0  0  0  0  0  0
   -0.0705   -5.6458   35.0196 N   0  0  0  0  0  0  0  0  0  0  0  0
   -0.2601   -5.5809   36.3675 C   0  0  0  0  0  0  0  0  0  0  0  0
   -0.2945   -4.3255   36.7475 N   0  0  0  0  0  0  0  0  0  0  0  0
   -0.1151   -3.5491   35.6268 N   0  0  0  0  0  0  0  0  0  0  0  0
    0.0180   -4.3569   34.5989 C   0  0  0  0  0  0  0  0  0  0  0  0
    0.6321   -5.5088   29.8060 N   0  0  0  0  0  0  0  0  0  0  0  0
    1.6220   -4.8205   28.2979 C   0  0  0  0  0  0  0  0  0  0  0  0
    0.7237   -4.4367   26.9592 N   0  0  0  0  0  0  0  0  0  0  0  0
    1.6847   -4.0201   25.8115 C   0  0  0  0  0  0  0  0  0  0  0  0
    2.9959   -3.1244   26.0618 C   0  0  0  0  0  0  0  0  0  0  0  0
    2.3578   -2.0020   26.7014 C   0  0  0  0  0  0  0  0  0  0  0  0
    2.8650   -1.0733   27.9892 S   0  0  0  0  0  0  0  0  0  0  0  0
    1.2621   -0.4804   28.1799 C   0  0  0  0  0  0  0  0  0  0  0  0
    0.3833   -1.0235   27.2548 C   0  0  0  0  0  0  0  0  0  0  0  0
    1.0672   -1.8333   26.2936 C   0  0  0  0  0  0  0  0  0  0  0  0
    0.6081   -2.5098   24.9124 C   0  0  0  0  0  0  0  0  0  0  0  0
    0.9283   -3.7524   24.2633 N   0  0  0  0  0  0  0  0  0  0  0  0
    1.5556   -3.4981   22.7074 C   0  0  0  0  0  0  0  0  0  0  0  0
    2.6912   -3.4110   22.7547 O   0  0  0  0  0  0  0  0  0  0  0  0
    0.9470   -3.4745   20.7854 C   0  0  0  0  0  0  0  0  0  0  0  0
    0.9427   -2.3294   18.5122 S   0  0  0  0  0  0  0  0  0  0  0  0
    1.4537   -1.4824   19.3983 Cl  0  0  0  0  0  0  0  0  0  0  0  0
    1.4847   -4.7316   29.0617 C   0  0  0  0  0  0  0  0  0  0  0  0
    0.6640   -3.3409   29.9122 C   0  0  0  0  0  0  0  0  0  0  0  0
   -0.6945   -3.0947   29.6644 C   0  0  0  0  0  0  0  0  0  0  0  0
   -1.3694   -2.1902   30.4744 C   0  0  0  0  0  0  0  0  0  0  0  0
   -0.7125   -1.5242   31.5065 C   0  0  0  0  0  0  0  0  0  0  0  0
    0.6341   -1.7622   31.7538 C   0  0  0  0  0  0  0  0  0  0  0  0
    1.3263   -2.6785   30.9748 C   0  0  0  0  0  0  0  0  0  0  0  0
   -0.9000   -6.4363   30.9251 H   0  0  0  0  0  0  0  0  0  0  0  0
   -1.1572   -7.9566   32.8174 H   0  0  0  0  0  0  0  0  0  0  0  0
   -1.7705   -6.3459   33.1752 H   0  0  0  0  0  0  0  0  0  0  0  0
    1.1022   -7.0067   34.0047 H   0  0  0  0  0  0  0  0  0  0  0  0
   -0.2513   -7.6730   34.9096 H   0  0  0  0  0  0  0  0  0  0  0  0
   -0.3595   -6.4400   37.0140 H   0  0  0  0  0  0  0  0  0  0  0  0
    0.1724   -4.0544   33.5748 H   0  0  0  0  0  0  0  0  0  0  0  0
    1.6294   -5.9568   27.7958 H   0  0  0  0  0  0  0  0  0  0  0  0
    2.8725   -4.9207   28.0241 H   0  0  0  0  0  0  0  0  0  0  0  0
    0.1560   -3.6350   27.2322 H   0  0  0  0  0  0  0  0  0  0  0  0
    2.2600   -4.9352   25.6408 H   0  0  0  0  0  0  0  0  0  0  0  0
    3.7269   -3.6238   26.7010 H   0  0  0  0  0  0  0  0  0  0  0  0
    3.4837   -2.8545   25.1215 H   0  0  0  0  0  0  0  0  0  0  0  0
    1.0365    0.2155   28.9763 H   0  0  0  0  0  0  0  0  0  0  0  0
   -0.6687   -0.7689   27.2288 H   0  0  0  0  0  0  0  0  0  0  0  0
   -0.4913   -2.5345   24.9249 H   0  0  0  0  0  0  0  0  0  0  0  0
    1.0200   -1.9004   24.1511 H   0  0  0  0  0  0  0  0  0  0  0  0
    0.8544   -4.4592   20.3430 H   0  0  0  0  0  0  0  0  0  0  0  0
    1.9724   -2.9859   17.9432 H   0  0  0  0  0  0  0  0  0  0  0  0
    2.3143   -5.2664   29.8428 H   0  0  0  0  0  0  0  0  0  0  0  0
    2.4321   -3.9043   29.4956 H   0  0  0  0  0  0  0  0  0  0  0  0
   -1.2336   -3.6348   28.8949 H   0  0  0  0  0  0  0  0  0  0  0  0
   -2.4241   -2.0140   30.3266 H   0  0  0  0  0  0  0  0  0  0  0  0
   -1.2595   -0.8284   32.1389 H   0  0  0  0  0  0  0  0  0  0  0  0
    1.1328   -1.2597   32.5793 H   0  0  0  0  0  0  0  0  0  0  0  0
    2.3589   -2.8961   31.2377 H   0  0  0  0  0  0  0  0  0  0  0  0
  1  2  2  0
  2  3  1  0
  3  4  1  0
  4  5  1  0
  5  6  1  0
  6  7  1  0
  7  8  2  0
  8  9  1  0
  9 10  2  0
  2 11  1  0
 11 12  1  0
 12 13  1  0
 13 14  1  0
 14 15  1  0
 15 16  1  0
 16 17  1  0
 17 18  1  0
 18 19  2  0
 19 20  1  0
 20 21  1  0
 21 22  1  0
 22 23  1  0
 23 24  2  0
 23 25  1  0
 25 26  1  0
 25 27  1  0
 11 28  1  0
 28 29  1  0
 29 30  2  0
 30 31  1  0
 31 32  2  0
 32 33  1  0
 33 34  2  0
 10  6  1  0
 22 14  1  0
 34 29  1  0
 20 16  2  0
  3 35  1  0
  4 36  1  0
  4 37  1  0
  5 38  1  0
  5 39  1  0
  7 40  1  0
 10 41  1  0
 12 42  1  0
 12 43  1  0
 13 44  1  0
 14 45  1  0
 15 46  1  0
 15 47  1  0
 18 48  1  0
 19 49  1  0
 21 50  1  0
 21 51  1  0
 25 52  1  0
 26 53  1  0
 28 54  1  0
 28 55  1  0
 30 56  1  0
 31 57  1  0
 32 58  1  0
 33 59  1  0
 34 60  1  0
M  END
>  <Energy>  (467) 
1338.4048288289171

>  <compound_id>  (467) 
2633

>  <target_id>  (467) 
1

>  <reference_id>  (467) 
177

>  <inspiration_ids>  (467) 
[177, 40]

>  <energy_score>  (467) 
1358.9860751232181

>  <distance_score>  (467) 
5.8536677319903845

>  <path>  (467) 
/opt/xchem-fragalysis-2/maxwin/BulkDock/SCRATCH/505736/C2633-P177/C2633-P177.minimised.mol

>  <scratch_subdir>  (467) 
/opt/xchem-fragalysis-2/maxwin/BulkDock/SCRATCH/505736/C2633-P177

>  <fragmenstein_runtime>  (467) 
49.03934693336487

>  <fragmenstein_outcome>  (467) 
too moved

>  <fragmenstein_mode>  (467) 
expansion

>  <fragmenstein_error>  (467) 


$$$$
C2633-P40
     RDKit          3D

 60 63  0  0  0  0  0  0  0  0999 V2000
   -0.2463   -2.0380   31.9545 O   0  0  0  0  0  0  0  0  0  0  0  0
    0.2030   -3.0723   31.9145 C   0  0  0  0  0  0  0  0  0  0  0  0
    0.2378   -4.1168   32.9084 N   0  0  0  0  0  0  0  0  0  0  0  0
   -0.2059   -4.1207   34.2834 C   0  0  0  0  0  0  0  0  0  0  0  0
   -0.4807   -5.5016   34.8621 C   0  0  0  0  0  0  0  0  0  0  0  0
    0.6664   -6.3709   34.9918 N   0  0  0  0  0  0  0  0  0  0  0  0
    1.9882   -6.0556   35.0119 C   0  0  0  0  0  0  0  0  0  0  0  0
    2.6980   -7.1580   35.0952 N   0  0  0  0  0  0  0  0  0  0  0  0
    1.8263   -8.2137   35.1662 N   0  0  0  0  0  0  0  0  0  0  0  0
    0.6079   -7.7245   35.1297 C   0  0  0  0  0  0  0  0  0  0  0  0
    1.1359   -3.8746   30.7517 N   0  0  0  0  0  0  0  0  0  0  0  0
    1.7383   -3.5270   28.9358 C   0  0  0  0  0  0  0  0  0  0  0  0
    2.7665   -4.7895   28.6787 N   0  0  0  0  0  0  0  0  0  0  0  0
    2.6552   -5.6158   27.4636 C   0  0  0  0  0  0  0  0  0  0  0  0
    3.7762   -6.7130   27.3977 C   0  0  0  0  0  0  0  0  0  0  0  0
    4.9405   -5.9730   26.9290 C   0  0  0  0  0  0  0  0  0  0  0  0
    6.5511   -6.3450   27.2180 S   0  0  0  0  0  0  0  0  0  0  0  0
    7.0227   -4.8127   26.6180 C   0  0  0  0  0  0  0  0  0  0  0  0
    5.9407   -4.0627   26.1967 C   0  0  0  0  0  0  0  0  0  0  0  0
    4.7219   -4.7694   26.3280 C   0  0  0  0  0  0  0  0  0  0  0  0
    3.3361   -4.2571   26.0834 C   0  0  0  0  0  0  0  0  0  0  0  0
    2.0386   -5.1844   26.1249 N   0  0  0  0  0  0  0  0  0  0  0  0
    1.8984   -5.9161   24.8555 C   0  0  0  0  0  0  0  0  0  0  0  0
    2.3204   -7.0051   24.5315 O   0  0  0  0  0  0  0  0  0  0  0  0
    0.7347   -5.0932   23.5056 C   0  0  0  0  0  0  0  0  0  0  0  0
    1.1556   -4.6861   21.4195 S   0  0  0  0  0  0  0  0  0  0  0  0
    1.4660   -3.2587   22.6969 Cl  0  0  0  0  0  0  0  0  0  0  0  0
    1.5916   -3.2275   29.6741 C   0  0  0  0  0  0  0  0  0  0  0  0
    0.3916   -1.8872   29.2124 C   0  0  0  0  0  0  0  0  0  0  0  0
    0.8853   -0.5764   29.0556 C   0  0  0  0  0  0  0  0  0  0  0  0
    0.0612    0.3742   28.4754 C   0  0  0  0  0  0  0  0  0  0  0  0
   -1.2086    0.0094   28.0302 C   0  0  0  0  0  0  0  0  0  0  0  0
   -1.6763   -1.2961   28.1915 C   0  0  0  0  0  0  0  0  0  0  0  0
   -0.8935   -2.2595   28.8085 C   0  0  0  0  0  0  0  0  0  0  0  0
    0.7979   -4.8880   32.5641 H   0  0  0  0  0  0  0  0  0  0  0  0
    0.5538   -3.5881   34.8658 H   0  0  0  0  0  0  0  0  0  0  0  0
   -1.1101   -3.5053   34.3284 H   0  0  0  0  0  0  0  0  0  0  0  0
   -1.2057   -6.0292   34.2312 H   0  0  0  0  0  0  0  0  0  0  0  0
   -0.9070   -5.4038   35.8672 H   0  0  0  0  0  0  0  0  0  0  0  0
    2.3903   -5.0530   34.9578 H   0  0  0  0  0  0  0  0  0  0  0  0
   -0.3107   -8.2920   35.1880 H   0  0  0  0  0  0  0  0  0  0  0  0
    0.8952   -3.9628   28.1847 H   0  0  0  0  0  0  0  0  0  0  0  0
    2.3913   -2.6139   28.2970 H   0  0  0  0  0  0  0  0  0  0  0  0
    3.7247   -4.4453   28.7986 H   0  0  0  0  0  0  0  0  0  0  0  0
    1.8163   -6.2499   27.7860 H   0  0  0  0  0  0  0  0  0  0  0  0
    3.5065   -7.5255   26.7186 H   0  0  0  0  0  0  0  0  0  0  0  0
    3.9507   -7.1261   28.3949 H   0  0  0  0  0  0  0  0  0  0  0  0
    8.0665   -4.5297   26.5939 H   0  0  0  0  0  0  0  0  0  0  0  0
    6.0387   -3.0567   25.8060 H   0  0  0  0  0  0  0  0  0  0  0  0
    3.3841   -3.8743   25.0686 H   0  0  0  0  0  0  0  0  0  0  0  0
    3.1509   -3.3538   26.6663 H   0  0  0  0  0  0  0  0  0  0  0  0
   -0.2775   -4.8793   23.8044 H   0  0  0  0  0  0  0  0  0  0  0  0
    0.6756   -3.4538   21.1927 H   0  0  0  0  0  0  0  0  0  0  0  0
    2.8328   -2.9067   30.0924 H   0  0  0  0  0  0  0  0  0  0  0  0
    1.6964   -2.2931   30.4223 H   0  0  0  0  0  0  0  0  0  0  0  0
    1.8912   -0.3050   29.3603 H   0  0  0  0  0  0  0  0  0  0  0  0
    0.4103    1.3943   28.3424 H   0  0  0  0  0  0  0  0  0  0  0  0
   -1.8413    0.7463   27.5431 H   0  0  0  0  0  0  0  0  0  0  0  0
   -2.6471   -1.5612   27.7870 H   0  0  0  0  0  0  0  0  0  0  0  0
   -1.2541   -3.2747   28.9105 H   0  0  0  0  0  0  0  0  0  0  0  0
  1  2  2  0
  2  3  1  0
  3  4  1  0
  4  5  1  0
  5  6  1  0
  6  7  1  0
  7  8  2  0
  8  9  1  0
  9 10  2  0
  2 11  1  0
 11 12  1  0
 12 13  1  0
 13 14  1  0
 14 15  1  0
 15 16  1  0
 16 17  1  0
 17 18  1  0
 18 19  2  0
 19 20  1  0
 20 21  1  0
 21 22  1  0
 22 23  1  0
 23 24  2  0
 23 25  1  0
 25 26  1  0
 25 27  1  0
 11 28  1  0
 28 29  1  0
 29 30  2  0
 30 31  1  0
 31 32  2  0
 32 33  1  0
 33 34  2  0
 10  6  1  0
 22 14  1  0
 34 29  1  0
 20 16  2  0
  3 35  1  0
  4 36  1  0
  4 37  1  0
  5 38  1  0
  5 39  1  0
  7 40  1  0
 10 41  1  0
 12 42  1  0
 12 43  1  0
 13 44  1  0
 14 45  1  0
 15 46  1  0
 15 47  1  0
 18 48  1  0
 19 49  1  0
 21 50  1  0
 21 51  1  0
 25 52  1  0
 26 53  1  0
 28 54  1  0
 28 55  1  0
 30 56  1  0
 31 57  1  0
 32 58  1  0
 33 59  1  0
 34 60  1  0
M  END
>  <Energy>  (468) 
958.55456091606925

>  <compound_id>  (468) 
2633

>  <target_id>  (468) 
1

>  <reference_id>  (468) 
40

>  <inspiration_ids>  (468) 
[177, 40]

>  <energy_score>  (468) 
979.1358072103781

>  <distance_score>  (468) 
6.0635252718042425

>  <path>  (468) 
/opt/xchem-fragalysis-2/maxwin/BulkDock/SCRATCH/505736/C2633-P40/C2633-P40.minimised.mol

>  <scratch_subdir>  (468) 
/opt/xchem-fragalysis-2/maxwin/BulkDock/SCRATCH/505736/C2633-P40

>  <fragmenstein_runtime>  (468) 
58.39292240142822

>  <fragmenstein_outcome>  (468) 
too moved

>  <fragmenstein_mode>  (468) 
expansion

>  <fragmenstein_error>  (468) 


$$$$
C2633-P177
     RDKit          3D

 60 63  0  0  0  0  0  0  0  0999 V2000
    0.9896   -2.5772   27.0213 O   0  0  0  0  0  0  0  0  0  0  0  0
   -0.0323   -3.1718   26.9866 C   0  0  0  0  0  0  0  0  0  0  0  0
   -0.5443   -4.1651   27.8395 N   0  0  0  0  0  0  0  0  0  0  0  0
   -0.0383   -4.6987   29.0673 C   0  0  0  0  0  0  0  0  0  0  0  0
   -0.1557   -6.1847   29.3349 C   0  0  0  0  0  0  0  0  0  0  0  0
   -0.1460   -6.4659   30.7623 N   0  0  0  0  0  0  0  0  0  0  0  0
    0.4849   -5.7680   31.7520 C   0  0  0  0  0  0  0  0  0  0  0  0
    0.1950   -6.2933   32.9190 N   0  0  0  0  0  0  0  0  0  0  0  0
   -0.6308   -7.3623   32.6972 N   0  0  0  0  0  0  0  0  0  0  0  0
   -0.7978   -7.4721   31.4012 C   0  0  0  0  0  0  0  0  0  0  0  0
   -0.9761   -2.8214   26.0251 N   0  0  0  0  0  0  0  0  0  0  0  0
   -1.1740   -3.3463   24.5887 C   0  0  0  0  0  0  0  0  0  0  0  0
   -0.0643   -3.9819   23.6799 N   0  0  0  0  0  0  0  0  0  0  0  0
    0.5929   -3.9664   21.7930 C   0  0  0  0  0  0  0  0  0  0  0  0
    1.6943   -4.2967   22.7763 C   0  0  0  0  0  0  0  0  0  0  0  0
    2.0986   -3.6367   24.1919 C   0  0  0  0  0  0  0  0  0  0  0  0
    3.0044   -4.1518   25.6043 S   0  0  0  0  0  0  0  0  0  0  0  0
    3.4153   -2.5762   25.9135 C   0  0  0  0  0  0  0  0  0  0  0  0
    2.6033   -1.7729   25.1395 C   0  0  0  0  0  0  0  0  0  0  0  0
    1.6327   -2.4102   24.1663 C   0  0  0  0  0  0  0  0  0  0  0  0
    0.4515   -2.2748   22.7040 C   0  0  0  0  0  0  0  0  0  0  0  0
    1.2232   -2.8297   21.1042 N   0  0  0  0  0  0  0  0  0  0  0  0
    0.9583   -2.0334   19.2514 C   0  0  0  0  0  0  0  0  0  0  0  0
    0.0733   -2.3977   18.4224 O   0  0  0  0  0  0  0  0  0  0  0  0
    1.8209   -0.8601   18.6197 C   0  0  0  0  0  0  0  0  0  0  0  0
    0.8618   -0.3185   16.9161 S   0  0  0  0  0  0  0  0  0  0  0  0
    1.5723    1.0420   18.9147 Cl  0  0  0  0  0  0  0  0  0  0  0  0
   -1.9075   -1.7871   26.4990 C   0  0  0  0  0  0  0  0  0  0  0  0
   -1.8144   -1.2808   27.9474 C   0  0  0  0  0  0  0  0  0  0  0  0
   -0.7293   -0.4848   28.3544 C   0  0  0  0  0  0  0  0  0  0  0  0
   -0.6316   -0.0098   29.6638 C   0  0  0  0  0  0  0  0  0  0  0  0
   -1.6264   -0.3078   30.5896 C   0  0  0  0  0  0  0  0  0  0  0  0
   -2.7210   -1.0751   30.2026 C   0  0  0  0  0  0  0  0  0  0  0  0
   -2.8136   -1.5522   28.8920 C   0  0  0  0  0  0  0  0  0  0  0  0
   -1.4898   -4.3893   27.5513 H   0  0  0  0  0  0  0  0  0  0  0  0
   -0.5774   -4.1310   29.8365 H   0  0  0  0  0  0  0  0  0  0  0  0
    1.0118   -4.3912   29.1489 H   0  0  0  0  0  0  0  0  0  0  0  0
    0.6636   -6.7167   28.8514 H   0  0  0  0  0  0  0  0  0  0  0  0
   -1.0646   -6.6168   28.9082 H   0  0  0  0  0  0  0  0  0  0  0  0
    1.1210   -4.9078   31.5910 H   0  0  0  0  0  0  0  0  0  0  0  0
   -1.3361   -8.2636   30.9149 H   0  0  0  0  0  0  0  0  0  0  0  0
   -1.8911   -4.1503   24.7646 H   0  0  0  0  0  0  0  0  0  0  0  0
   -1.7234   -2.5506   24.0828 H   0  0  0  0  0  0  0  0  0  0  0  0
   -0.2696   -4.9820   23.7332 H   0  0  0  0  0  0  0  0  0  0  0  0
    0.4774   -4.8853   21.2051 H   0  0  0  0  0  0  0  0  0  0  0  0
    1.4884   -5.3430   22.7236 H   0  0  0  0  0  0  0  0  0  0  0  0
    2.6089   -3.9281   22.4018 H   0  0  0  0  0  0  0  0  0  0  0  0
    4.1457   -2.2722   26.6479 H   0  0  0  0  0  0  0  0  0  0  0  0
    2.8911   -0.7433   25.2985 H   0  0  0  0  0  0  0  0  0  0  0  0
   -0.6099   -2.4594   22.5119 H   0  0  0  0  0  0  0  0  0  0  0  0
   -0.1007   -1.5411   23.1868 H   0  0  0  0  0  0  0  0  0  0  0  0
    2.7807   -1.1572   18.2069 H   0  0  0  0  0  0  0  0  0  0  0  0
   -0.0027    0.5180   17.4931 H   0  0  0  0  0  0  0  0  0  0  0  0
   -2.9353   -2.0394   26.2241 H   0  0  0  0  0  0  0  0  0  0  0  0
   -1.6575   -0.9127   25.9287 H   0  0  0  0  0  0  0  0  0  0  0  0
    0.0734   -0.2507   27.6546 H   0  0  0  0  0  0  0  0  0  0  0  0
    0.2307    0.5844   29.9558 H   0  0  0  0  0  0  0  0  0  0  0  0
   -1.5473    0.0591   31.6094 H   0  0  0  0  0  0  0  0  0  0  0  0
   -3.5057   -1.2972   30.9206 H   0  0  0  0  0  0  0  0  0  0  0  0
   -3.6923   -2.1228   28.6072 H   0  0  0  0  0  0  0  0  0  0  0  0
  1  2  2  0
  2  3  1  0
  3  4  1  0
  4  5  1  0
  5  6  1  0
  6  7  1  0
  7  8  2  0
  8  9  1  0
  9 10  2  0
  2 11  1  0
 11 12  1  0
 12 13  1  0
 13 14  1  0
 14 15  1  0
 15 16  1  0
 16 17  1  0
 17 18  1  0
 18 19  2  0
 19 20  1  0
 20 21  1  0
 21 22  1  0
 22 23  1  0
 23 24  2  0
 23 25  1  0
 25 26  1  0
 25 27  1  0
 11 28  1  0
 28 29  1  0
 29 30  2  0
 30 31  1  0
 31 32  2  0
 32 33  1  0
 33 34  2  0
 10  6  1  0
 22 14  1  0
 34 29  1  0
 20 16  2  0
  3 35  1  0
  4 36  1  0
  4 37  1  0
  5 38  1  0
  5 39  1  0
  7 40  1  0
 10 41  1  0
 12 42  1  0
 12 43  1  0
 13 44  1  0
 14 45  1  0
 15 46  1  0
 15 47  1  0
 18 48  1  0
 19 49  1  0
 21 50  1  0
 21 51  1  0
 25 52  1  0
 26 53  1  0
 28 54  1  0
 28 55  1  0
 30 56  1  0
 31 57  1  0
 32 58  1  0
 33 59  1  0
 34 60  1  0
M  END
>  <Energy>  (469) 
775.97532183659803

>  <compound_id>  (469) 
2633

>  <target_id>  (469) 
1

>  <reference_id>  (469) 
177

>  <inspiration_ids>  (469) 
[177, 41]

>  <energy_score>  (469) 
793.5950732754084

>  <distance_score>  (469) 
7.114595160968558

>  <path>  (469) 
/opt/xchem-fragalysis-2/maxwin/BulkDock/SCRATCH/505736/C2633-P177/C2633-P177.minimised.mol

>  <scratch_subdir>  (469) 
/opt/xchem-fragalysis-2/maxwin/BulkDock/SCRATCH/505736/C2633-P177

>  <fragmenstein_runtime>  (469) 
29.467362642288208

>  <fragmenstein_outcome>  (469) 
too moved

>  <fragmenstein_mode>  (469) 
expansion

>  <fragmenstein_error>  (469) 


$$$$
C2633-P41
     RDKit          3D

 60 63  0  0  0  0  0  0  0  0999 V2000
    3.9682   -2.1379   28.5388 O   0  0  0  0  0  0  0  0  0  0  0  0
    3.2420   -3.0772   28.4767 C   0  0  0  0  0  0  0  0  0  0  0  0
    1.8316   -3.1651   28.5878 N   0  0  0  0  0  0  0  0  0  0  0  0
    0.8290   -2.1406   28.7155 C   0  0  0  0  0  0  0  0  0  0  0  0
    0.6149   -1.7140   30.1716 C   0  0  0  0  0  0  0  0  0  0  0  0
   -0.2768   -2.5639   30.9223 N   0  0  0  0  0  0  0  0  0  0  0  0
   -0.1250   -2.9891   32.2038 C   0  0  0  0  0  0  0  0  0  0  0  0
   -1.1823   -3.6828   32.5612 N   0  0  0  0  0  0  0  0  0  0  0  0
   -2.0617   -3.6641   31.5121 N   0  0  0  0  0  0  0  0  0  0  0  0
   -1.5159   -2.9663   30.5439 C   0  0  0  0  0  0  0  0  0  0  0  0
    3.7371   -4.3758   28.2978 N   0  0  0  0  0  0  0  0  0  0  0  0
    4.1731   -5.4539   29.1372 C   0  0  0  0  0  0  0  0  0  0  0  0
    3.5192   -6.5858   28.0165 N   0  0  0  0  0  0  0  0  0  0  0  0
    4.2706   -6.8896   26.6791 C   0  0  0  0  0  0  0  0  0  0  0  0
    5.7934   -7.3220   26.7236 C   0  0  0  0  0  0  0  0  0  0  0  0
    6.4686   -6.0316   26.7785 C   0  0  0  0  0  0  0  0  0  0  0  0
    7.8231   -5.5422   27.6331 S   0  0  0  0  0  0  0  0  0  0  0  0
    7.4095   -3.8906   27.3540 C   0  0  0  0  0  0  0  0  0  0  0  0
    6.2676   -3.7611   26.5798 C   0  0  0  0  0  0  0  0  0  0  0  0
    5.7585   -5.0306   26.1917 C   0  0  0  0  0  0  0  0  0  0  0  0
    4.6257   -5.4481   25.2865 C   0  0  0  0  0  0  0  0  0  0  0  0
    3.3664   -6.3570   25.5471 N   0  0  0  0  0  0  0  0  0  0  0  0
    2.1573   -5.5459   25.5737 C   0  0  0  0  0  0  0  0  0  0  0  0
    1.6999   -5.0538   26.5633 O   0  0  0  0  0  0  0  0  0  0  0  0
    0.8882   -5.2183   24.0112 C   0  0  0  0  0  0  0  0  0  0  0  0
    1.3187   -3.6841   22.4996 S   0  0  0  0  0  0  0  0  0  0  0  0
    0.5258   -6.4195   22.9512 Cl  0  0  0  0  0  0  0  0  0  0  0  0
    3.9992   -5.0832   29.9851 C   0  0  0  0  0  0  0  0  0  0  0  0
    2.6876   -5.3769   30.9766 C   0  0  0  0  0  0  0  0  0  0  0  0
    1.4800   -5.8880   30.4960 C   0  0  0  0  0  0  0  0  0  0  0  0
    0.4940   -6.3054   31.3901 C   0  0  0  0  0  0  0  0  0  0  0  0
    0.6999   -6.1984   32.7658 C   0  0  0  0  0  0  0  0  0  0  0  0
    1.8800   -5.6429   33.2555 C   0  0  0  0  0  0  0  0  0  0  0  0
    2.8695   -5.2228   32.3679 C   0  0  0  0  0  0  0  0  0  0  0  0
    1.5457   -4.1183   28.3988 H   0  0  0  0  0  0  0  0  0  0  0  0
   -0.0842   -2.4986   28.2336 H   0  0  0  0  0  0  0  0  0  0  0  0
    1.1956   -1.2757   28.1516 H   0  0  0  0  0  0  0  0  0  0  0  0
    0.1563   -0.7179   30.1913 H   0  0  0  0  0  0  0  0  0  0  0  0
    1.5680   -1.6552   30.7098 H   0  0  0  0  0  0  0  0  0  0  0  0
    0.7414   -2.7836   32.8154 H   0  0  0  0  0  0  0  0  0  0  0  0
   -1.9697   -2.7376   29.5882 H   0  0  0  0  0  0  0  0  0  0  0  0
    4.8763   -6.4491   29.1969 H   0  0  0  0  0  0  0  0  0  0  0  0
    5.2328   -5.1735   28.6709 H   0  0  0  0  0  0  0  0  0  0  0  0
    2.7123   -6.0337   27.7037 H   0  0  0  0  0  0  0  0  0  0  0  0
    3.8802   -7.9176   26.5839 H   0  0  0  0  0  0  0  0  0  0  0  0
    5.9935   -7.9369   27.6070 H   0  0  0  0  0  0  0  0  0  0  0  0
    6.0638   -7.8898   25.8265 H   0  0  0  0  0  0  0  0  0  0  0  0
    8.0276   -3.0973   27.7500 H   0  0  0  0  0  0  0  0  0  0  0  0
    5.8646   -2.8026   26.2735 H   0  0  0  0  0  0  0  0  0  0  0  0
    5.1274   -5.9404   24.4456 H   0  0  0  0  0  0  0  0  0  0  0  0
    4.1959   -4.4777   25.0269 H   0  0  0  0  0  0  0  0  0  0  0  0
   -0.1327   -5.0051   24.2776 H   0  0  0  0  0  0  0  0  0  0  0  0
    1.1291   -4.5008   21.4552 H   0  0  0  0  0  0  0  0  0  0  0  0
    5.0559   -5.0434   30.6286 H   0  0  0  0  0  0  0  0  0  0  0  0
    3.9320   -3.9920   30.4199 H   0  0  0  0  0  0  0  0  0  0  0  0
    1.3047   -6.0077   29.4385 H   0  0  0  0  0  0  0  0  0  0  0  0
   -0.4468   -6.7037   31.0185 H   0  0  0  0  0  0  0  0  0  0  0  0
   -0.0876   -6.5005   33.4533 H   0  0  0  0  0  0  0  0  0  0  0  0
    2.0183   -5.5286   34.3279 H   0  0  0  0  0  0  0  0  0  0  0  0
    3.7944   -4.8109   32.7670 H   0  0  0  0  0  0  0  0  0  0  0  0
  1  2  2  0
  2  3  1  0
  3  4  1  0
  4  5  1  0
  5  6  1  0
  6  7  1  0
  7  8  2  0
  8  9  1  0
  9 10  2  0
  2 11  1  0
 11 12  1  0
 12 13  1  0
 13 14  1  0
 14 15  1  0
 15 16  1  0
 16 17  1  0
 17 18  1  0
 18 19  2  0
 19 20  1  0
 20 21  1  0
 21 22  1  0
 22 23  1  0
 23 24  2  0
 23 25  1  0
 25 26  1  0
 25 27  1  0
 11 28  1  0
 28 29  1  0
 29 30  2  0
 30 31  1  0
 31 32  2  0
 32 33  1  0
 33 34  2  0
 10  6  1  0
 22 14  1  0
 34 29  1  0
 20 16  2  0
  3 35  1  0
  4 36  1  0
  4 37  1  0
  5 38  1  0
  5 39  1  0
  7 40  1  0
 10 41  1  0
 12 42  1  0
 12 43  1  0
 13 44  1  0
 14 45  1  0
 15 46  1  0
 15 47  1  0
 18 48  1  0
 19 49  1  0
 21 50  1  0
 21 51  1  0
 25 52  1  0
 26 53  1  0
 28 54  1  0
 28 55  1  0
 30 56  1  0
 31 57  1  0
 32 58  1  0
 33 59  1  0
 34 60  1  0
M  END
>  <Energy>  (470) 
733.23235367104132

>  <compound_id>  (470) 
2633

>  <target_id>  (470) 
1

>  <reference_id>  (470) 
41

>  <inspiration_ids>  (470) 
[177, 41]

>  <energy_score>  (470) 
750.85210510985

>  <distance_score>  (470) 
6.348993978093478

>  <path>  (470) 
/opt/xchem-fragalysis-2/maxwin/BulkDock/SCRATCH/505736/C2633-P41/C2633-P41.minimised.mol

>  <scratch_subdir>  (470) 
/opt/xchem-fragalysis-2/maxwin/BulkDock/SCRATCH/505736/C2633-P41

>  <fragmenstein_runtime>  (470) 
28.982556343078613

>  <fragmenstein_outcome>  (470) 
too moved

>  <fragmenstein_mode>  (470) 
expansion

>  <fragmenstein_error>  (470) 


$$$$
C2635-P177
     RDKit          3D

 60 63  0  0  0  0  0  0  0  0999 V2000
    0.6311    0.1578   34.3034 C   0  0  0  0  0  0  0  0  0  0  0  0
    0.6155   -1.0355   33.3830 N   0  0  0  0  0  0  0  0  0  0  0  0
    1.6653   -0.2303   32.6742 C   0  0  0  0  0  0  0  0  0  0  0  0
    1.1182    0.5532   31.4933 C   0  0  0  0  0  0  0  0  0  0  0  0
    1.8122    1.6792   31.0359 C   0  0  0  0  0  0  0  0  0  0  0  0
    1.3730    2.3643   29.9050 C   0  0  0  0  0  0  0  0  0  0  0  0
    0.2427    1.9285   29.2207 C   0  0  0  0  0  0  0  0  0  0  0  0
   -0.4607    0.8172   29.6641 C   0  0  0  0  0  0  0  0  0  0  0  0
   -0.0241    0.1316   30.7917 C   0  0  0  0  0  0  0  0  0  0  0  0
    0.7179   -2.2371   34.1368 C   0  0  0  0  0  0  0  0  0  0  0  0
    1.6845   -2.8681   34.4757 O   0  0  0  0  0  0  0  0  0  0  0  0
   -0.6808   -2.7714   34.4256 C   0  0  0  0  0  0  0  0  0  0  0  0
   -1.5876   -2.6183   33.3046 N   0  0  0  0  0  0  0  0  0  0  0  0
   -2.7292   -1.8717   33.3154 C   0  0  0  0  0  0  0  0  0  0  0  0
   -3.3656   -2.0372   32.1833 N   0  0  0  0  0  0  0  0  0  0  0  0
   -2.6221   -2.8928   31.4096 N   0  0  0  0  0  0  0  0  0  0  0  0
   -1.5297   -3.2239   32.0688 C   0  0  0  0  0  0  0  0  0  0  0  0
   -0.4954   -4.1961   31.6046 C   0  0  0  0  0  0  0  0  0  0  0  0
    0.4996   -3.6477   30.5710 C   0  0  0  0  0  0  0  0  0  0  0  0
   -0.0871   -3.5378   29.2384 N   0  0  0  0  0  0  0  0  0  0  0  0
    0.6083   -3.2425   28.2208 C   0  0  0  0  0  0  0  0  0  0  0  0
   -0.2102   -3.0800   26.8761 C   0  0  0  0  0  0  0  0  0  0  0  0
    0.7932   -2.9679   25.3271 S   0  0  0  0  0  0  0  0  0  0  0  0
   -1.2130   -1.6182   27.0211 Cl  0  0  0  0  0  0  0  0  0  0  0  0
    2.0085   -2.9477   28.0946 N   0  0  0  0  0  0  0  0  0  0  0  0
    3.1156   -2.7790   29.1687 C   0  0  0  0  0  0  0  0  0  0  0  0
    4.4166   -2.1427   28.6144 C   0  0  0  0  0  0  0  0  0  0  0  0
    5.0092   -3.1498   27.7129 C   0  0  0  0  0  0  0  0  0  0  0  0
    6.5854   -3.1627   27.1255 S   0  0  0  0  0  0  0  0  0  0  0  0
    6.2728   -4.6031   26.2441 C   0  0  0  0  0  0  0  0  0  0  0  0
    4.9822   -5.0596   26.4236 C   0  0  0  0  0  0  0  0  0  0  0  0
    4.2509   -4.2075   27.2902 C   0  0  0  0  0  0  0  0  0  0  0  0
    2.8488   -4.3160   27.7925 C   0  0  0  0  0  0  0  0  0  0  0  0
   -0.2024   -0.0119   35.0018 H   0  0  0  0  0  0  0  0  0  0  0  0
    0.3787    1.1278   33.8496 H   0  0  0  0  0  0  0  0  0  0  0  0
    1.5084    0.1838   34.9698 H   0  0  0  0  0  0  0  0  0  0  0  0
    2.2655   -1.0215   32.1943 H   0  0  0  0  0  0  0  0  0  0  0  0
    2.4583    0.2833   33.2486 H   0  0  0  0  0  0  0  0  0  0  0  0
    2.7114    2.0240   31.5406 H   0  0  0  0  0  0  0  0  0  0  0  0
    1.9180    3.2321   29.5422 H   0  0  0  0  0  0  0  0  0  0  0  0
   -0.0909    2.4567   28.3370 H   0  0  0  0  0  0  0  0  0  0  0  0
   -1.3427    0.4776   29.1279 H   0  0  0  0  0  0  0  0  0  0  0  0
   -0.5857   -0.7460   31.0963 H   0  0  0  0  0  0  0  0  0  0  0  0
   -0.6274   -3.8414   34.6529 H   0  0  0  0  0  0  0  0  0  0  0  0
   -1.0949   -2.2537   35.2966 H   0  0  0  0  0  0  0  0  0  0  0  0
   -3.0554   -1.2706   34.1511 H   0  0  0  0  0  0  0  0  0  0  0  0
   -0.9992   -5.0772   31.1930 H   0  0  0  0  0  0  0  0  0  0  0  0
    0.0755   -4.5593   32.4667 H   0  0  0  0  0  0  0  0  0  0  0  0
    0.8794   -2.6812   30.9061 H   0  0  0  0  0  0  0  0  0  0  0  0
    1.3289   -4.3618   30.5388 H   0  0  0  0  0  0  0  0  0  0  0  0
   -0.8728   -3.9383   26.7819 H   0  0  0  0  0  0  0  0  0  0  0  0
    1.7690   -2.2271   25.8785 H   0  0  0  0  0  0  0  0  0  0  0  0
    3.2954   -3.6187   29.8597 H   0  0  0  0  0  0  0  0  0  0  0  0
    2.7086   -2.0008   29.8286 H   0  0  0  0  0  0  0  0  0  0  0  0
    5.0907   -1.8994   29.4425 H   0  0  0  0  0  0  0  0  0  0  0  0
    4.1880   -1.2223   28.0654 H   0  0  0  0  0  0  0  0  0  0  0  0
    7.0502   -5.0451   25.6361 H   0  0  0  0  0  0  0  0  0  0  0  0
    4.6019   -5.9568   25.9483 H   0  0  0  0  0  0  0  0  0  0  0  0
    2.7394   -5.0382   28.6149 H   0  0  0  0  0  0  0  0  0  0  0  0
    2.2863   -4.7945   26.9808 H   0  0  0  0  0  0  0  0  0  0  0  0
  1  2  1  0
  2  3  1  0
  3  4  1  0
  4  5  2  0
  5  6  1  0
  6  7  2  0
  7  8  1  0
  8  9  2  0
  2 10  1  0
 10 11  2  0
 10 12  1  0
 12 13  1  0
 13 14  1  0
 14 15  2  0
 15 16  1  0
 16 17  2  0
 17 18  1  0
 18 19  1  0
 19 20  1  0
 20 21  2  3
 21 22  1  0
 22 23  1  0
 22 24  1  0
 21 25  1  0
 25 26  1  0
 26 27  1  0
 27 28  1  0
 28 29  1  0
 29 30  1  0
 30 31  2  0
 31 32  1  0
 32 33  1  0
  9  4  1  0
 17 13  1  0
 33 25  1  0
 32 28  2  0
  1 34  1  0
  1 35  1  0
  1 36  1  0
  3 37  1  0
  3 38  1  0
  5 39  1  0
  6 40  1  0
  7 41  1  0
  8 42  1  0
  9 43  1  0
 12 44  1  0
 12 45  1  0
 14 46  1  0
 18 47  1  0
 18 48  1  0
 19 49  1  0
 19 50  1  0
 22 51  1  0
 23 52  1  0
 26 53  1  0
 26 54  1  0
 27 55  1  0
 27 56  1  0
 30 57  1  0
 31 58  1  0
 33 59  1  0
 33 60  1  0
M  END
>  <Energy>  (471) 
205.45376438909412

>  <compound_id>  (471) 
2635

>  <target_id>  (471) 
1

>  <reference_id>  (471) 
177

>  <inspiration_ids>  (471) 
[177, 59]

>  <energy_score>  (471) 
58.01019148129467

>  <distance_score>  (471) 
5.885082089175866

>  <path>  (471) 
/opt/xchem-fragalysis-2/maxwin/BulkDock/SCRATCH/505736/C2635-P177/C2635-P177.minimised.mol

>  <scratch_subdir>  (471) 
/opt/xchem-fragalysis-2/maxwin/BulkDock/SCRATCH/505736/C2635-P177

>  <fragmenstein_runtime>  (471) 
29.76247239112854

>  <fragmenstein_outcome>  (471) 
too moved

>  <fragmenstein_mode>  (471) 
expansion

>  <fragmenstein_error>  (471) 


$$$$
C2635-P59
     RDKit          3D

 60 63  0  0  0  0  0  0  0  0999 V2000
   -0.9166   -2.2269   34.1344 C   0  0  0  0  0  0  0  0  0  0  0  0
   -0.3272   -1.9403   32.7769 N   0  0  0  0  0  0  0  0  0  0  0  0
    0.0309   -0.6434   33.4452 C   0  0  0  0  0  0  0  0  0  0  0  0
    0.5455    0.2221   32.2877 C   0  0  0  0  0  0  0  0  0  0  0  0
    1.8751    0.6519   32.2402 C   0  0  0  0  0  0  0  0  0  0  0  0
    2.3572    1.3264   31.1153 C   0  0  0  0  0  0  0  0  0  0  0  0
    1.5239    1.5671   30.0242 C   0  0  0  0  0  0  0  0  0  0  0  0
    0.1981    1.1535   30.0630 C   0  0  0  0  0  0  0  0  0  0  0  0
   -0.2930    0.5034   31.1947 C   0  0  0  0  0  0  0  0  0  0  0  0
    0.4951   -3.0316   32.3570 C   0  0  0  0  0  0  0  0  0  0  0  0
    1.6712   -3.2304   32.5126 O   0  0  0  0  0  0  0  0  0  0  0  0
   -0.3436   -3.9743   31.5077 C   0  0  0  0  0  0  0  0  0  0  0  0
   -0.4677   -3.4104   30.1784 N   0  0  0  0  0  0  0  0  0  0  0  0
   -1.3573   -2.4452   29.8162 C   0  0  0  0  0  0  0  0  0  0  0  0
   -1.0443   -1.9941   28.6282 N   0  0  0  0  0  0  0  0  0  0  0  0
    0.0409   -2.7135   28.1809 N   0  0  0  0  0  0  0  0  0  0  0  0
    0.3562   -3.6067   29.0907 C   0  0  0  0  0  0  0  0  0  0  0  0
    1.4074   -4.6530   29.0376 C   0  0  0  0  0  0  0  0  0  0  0  0
    2.2495   -4.8452   27.7521 C   0  0  0  0  0  0  0  0  0  0  0  0
    1.5978   -5.0588   26.4508 N   0  0  0  0  0  0  0  0  0  0  0  0
    2.1615   -5.3759   25.3671 C   0  0  0  0  0  0  0  0  0  0  0  0
    0.8357   -5.0747   23.7830 C   0  0  0  0  0  0  0  0  0  0  0  0
    1.0438   -4.7427   21.5736 S   0  0  0  0  0  0  0  0  0  0  0  0
    1.4776   -3.2268   22.7610 Cl  0  0  0  0  0  0  0  0  0  0  0  0
    3.5202   -6.0066   25.2086 N   0  0  0  0  0  0  0  0  0  0  0  0
    4.5669   -6.5584   26.2734 C   0  0  0  0  0  0  0  0  0  0  0  0
    5.1627   -6.0207   27.5873 C   0  0  0  0  0  0  0  0  0  0  0  0
    5.4439   -4.6044   27.4375 C   0  0  0  0  0  0  0  0  0  0  0  0
    5.9932   -3.5585   28.6367 S   0  0  0  0  0  0  0  0  0  0  0  0
    5.8818   -2.2262   27.5603 C   0  0  0  0  0  0  0  0  0  0  0  0
    5.4362   -2.6091   26.3111 C   0  0  0  0  0  0  0  0  0  0  0  0
    5.1995   -4.0162   26.2379 C   0  0  0  0  0  0  0  0  0  0  0  0
    4.6869   -4.8444   25.0632 C   0  0  0  0  0  0  0  0  0  0  0  0
   -1.8148   -1.6347   34.3636 H   0  0  0  0  0  0  0  0  0  0  0  0
   -1.2980   -3.2558   34.0798 H   0  0  0  0  0  0  0  0  0  0  0  0
   -0.1870   -2.2836   34.9578 H   0  0  0  0  0  0  0  0  0  0  0  0
   -0.8036   -0.0526   33.8563 H   0  0  0  0  0  0  0  0  0  0  0  0
    0.8646   -0.7539   34.1556 H   0  0  0  0  0  0  0  0  0  0  0  0
    2.5609    0.4327   33.0546 H   0  0  0  0  0  0  0  0  0  0  0  0
    3.3973    1.6403   31.0760 H   0  0  0  0  0  0  0  0  0  0  0  0
    1.9112    2.0636   29.1384 H   0  0  0  0  0  0  0  0  0  0  0  0
   -0.4451    1.3119   29.2001 H   0  0  0  0  0  0  0  0  0  0  0  0
   -1.3249    0.1659   31.1917 H   0  0  0  0  0  0  0  0  0  0  0  0
    0.1295   -4.9580   31.4506 H   0  0  0  0  0  0  0  0  0  0  0  0
   -1.3471   -4.1039   31.9196 H   0  0  0  0  0  0  0  0  0  0  0  0
   -2.1583   -2.0829   30.4410 H   0  0  0  0  0  0  0  0  0  0  0  0
    0.9672   -5.6110   29.3308 H   0  0  0  0  0  0  0  0  0  0  0  0
    2.1274   -4.4283   29.8377 H   0  0  0  0  0  0  0  0  0  0  0  0
    2.8019   -5.7473   27.9660 H   0  0  0  0  0  0  0  0  0  0  0  0
    2.8912   -3.9688   27.6666 H   0  0  0  0  0  0  0  0  0  0  0  0
   -0.2175   -4.8938   23.9498 H   0  0  0  0  0  0  0  0  0  0  0  0
    0.7493   -3.4544   21.3242 H   0  0  0  0  0  0  0  0  0  0  0  0
    4.0539   -7.4797   26.5919 H   0  0  0  0  0  0  0  0  0  0  0  0
    5.3960   -6.9839   25.6786 H   0  0  0  0  0  0  0  0  0  0  0  0
    4.5513   -6.2431   28.4648 H   0  0  0  0  0  0  0  0  0  0  0  0
    6.1009   -6.5616   27.7738 H   0  0  0  0  0  0  0  0  0  0  0  0
    6.1426   -1.2310   27.8926 H   0  0  0  0  0  0  0  0  0  0  0  0
    5.2958   -1.9138   25.4916 H   0  0  0  0  0  0  0  0  0  0  0  0
    5.5138   -5.1888   24.4347 H   0  0  0  0  0  0  0  0  0  0  0  0
    4.0769   -4.0240   24.7081 H   0  0  0  0  0  0  0  0  0  0  0  0
  1  2  1  0
  2  3  1  0
  3  4  1  0
  4  5  2  0
  5  6  1  0
  6  7  2  0
  7  8  1  0
  8  9  2  0
  2 10  1  0
 10 11  2  0
 10 12  1  0
 12 13  1  0
 13 14  1  0
 14 15  2  0
 15 16  1  0
 16 17  2  0
 17 18  1  0
 18 19  1  0
 19 20  1  0
 20 21  2  3
 21 22  1  0
 22 23  1  0
 22 24  1  0
 21 25  1  0
 25 26  1  0
 26 27  1  0
 27 28  1  0
 28 29  1  0
 29 30  1  0
 30 31  2  0
 31 32  1  0
 32 33  1  0
  9  4  1  0
 17 13  1  0
 33 25  1  0
 32 28  2  0
  1 34  1  0
  1 35  1  0
  1 36  1  0
  3 37  1  0
  3 38  1  0
  5 39  1  0
  6 40  1  0
  7 41  1  0
  8 42  1  0
  9 43  1  0
 12 44  1  0
 12 45  1  0
 14 46  1  0
 18 47  1  0
 18 48  1  0
 19 49  1  0
 19 50  1  0
 22 51  1  0
 23 52  1  0
 26 53  1  0
 26 54  1  0
 27 55  1  0
 27 56  1  0
 30 57  1  0
 31 58  1  0
 33 59  1  0
 33 60  1  0
M  END
>  <Energy>  (472) 
456.71401538205964

>  <compound_id>  (472) 
2635

>  <target_id>  (472) 
1

>  <reference_id>  (472) 
59

>  <inspiration_ids>  (472) 
[177, 59]

>  <energy_score>  (472) 
309.2704424742474

>  <distance_score>  (472) 
5.7994172654635685

>  <path>  (472) 
/opt/xchem-fragalysis-2/maxwin/BulkDock/SCRATCH/505736/C2635-P59/C2635-P59.minimised.mol

>  <scratch_subdir>  (472) 
/opt/xchem-fragalysis-2/maxwin/BulkDock/SCRATCH/505736/C2635-P59

>  <fragmenstein_runtime>  (472) 
26.637259483337402

>  <fragmenstein_outcome>  (472) 
too moved

>  <fragmenstein_mode>  (472) 
expansion

>  <fragmenstein_error>  (472) 


$$$$
C2636-P177
     RDKit          3D

 60 63  0  0  0  0  0  0  0  0999 V2000
   -2.1331   -3.3164   24.7799 C   0  0  0  0  0  0  0  0  0  0  0  0
   -2.1962   -2.5793   25.9505 N   0  0  0  0  0  0  0  0  0  0  0  0
   -3.5325   -2.0874   26.1681 C   0  0  0  0  0  0  0  0  0  0  0  0
   -5.3550   -2.5894   26.2571 C   0  0  0  0  0  0  0  0  0  0  0  0
   -6.3775   -2.8078   24.5729 C   0  0  0  0  0  0  0  0  0  0  0  0
   -7.3034   -4.5105   24.3130 C   0  0  0  0  0  0  0  0  0  0  0  0
   -6.6751   -6.1103   25.3262 C   0  0  0  0  0  0  0  0  0  0  0  0
   -5.9814   -5.5968   27.1408 C   0  0  0  0  0  0  0  0  0  0  0  0
   -5.1985   -3.7785   27.6985 C   0  0  0  0  0  0  0  0  0  0  0  0
   -1.0902   -2.2967   26.8919 C   0  0  0  0  0  0  0  0  0  0  0  0
   -0.9218   -3.4001   27.7928 O   0  0  0  0  0  0  0  0  0  0  0  0
    0.3164   -2.1830   26.2816 C   0  0  0  0  0  0  0  0  0  0  0  0
    0.5420   -2.5013   24.8515 N   0  0  0  0  0  0  0  0  0  0  0  0
    1.0029   -3.7867   24.3953 C   0  0  0  0  0  0  0  0  0  0  0  0
    1.9336   -4.4032   25.8688 C   0  0  0  0  0  0  0  0  0  0  0  0
    3.0734   -3.5439   26.0056 C   0  0  0  0  0  0  0  0  0  0  0  0
    4.0765   -3.3242   27.3254 S   0  0  0  0  0  0  0  0  0  0  0  0
    5.0054   -2.2051   26.4221 C   0  0  0  0  0  0  0  0  0  0  0  0
    4.5090   -2.0597   25.1400 C   0  0  0  0  0  0  0  0  0  0  0  0
    3.3596   -2.8650   24.8831 C   0  0  0  0  0  0  0  0  0  0  0  0
    2.4756   -3.0466   23.5336 C   0  0  0  0  0  0  0  0  0  0  0  0
    1.8519   -4.2764   22.9455 N   0  0  0  0  0  0  0  0  0  0  0  0
    1.2484   -4.5764   21.3028 C   0  0  0  0  0  0  0  0  0  0  0  0
    0.1524   -4.3931   20.9265 O   0  0  0  0  0  0  0  0  0  0  0  0
    2.4553   -5.1546   19.6924 C   0  0  0  0  0  0  0  0  0  0  0  0
    4.7069   -4.8496   18.7016 S   0  0  0  0  0  0  0  0  0  0  0  0
    2.4476   -3.4029   18.0114 Cl  0  0  0  0  0  0  0  0  0  0  0  0
   -1.4021   -1.0486   27.8058 C   0  0  0  0  0  0  0  0  0  0  0  0
   -0.3877   -0.4216   28.6160 N   0  0  0  0  0  0  0  0  0  0  0  0
    0.3761   -1.0087   29.5727 C   0  0  0  0  0  0  0  0  0  0  0  0
    0.9284   -0.0791   30.3188 N   0  0  0  0  0  0  0  0  0  0  0  0
    0.5261    1.1440   29.8363 N   0  0  0  0  0  0  0  0  0  0  0  0
   -0.2578    0.9222   28.8091 C   0  0  0  0  0  0  0  0  0  0  0  0
   -1.6457   -4.2709   24.9220 H   0  0  0  0  0  0  0  0  0  0  0  0
   -3.1192   -3.5674   24.4338 H   0  0  0  0  0  0  0  0  0  0  0  0
   -1.7972   -2.6733   23.9730 H   0  0  0  0  0  0  0  0  0  0  0  0
   -3.4673   -1.8850   27.2390 H   0  0  0  0  0  0  0  0  0  0  0  0
   -3.4760   -1.2517   25.4997 H   0  0  0  0  0  0  0  0  0  0  0  0
   -5.9072   -2.5585   23.6957 H   0  0  0  0  0  0  0  0  0  0  0  0
   -7.4119   -4.9227   23.3164 H   0  0  0  0  0  0  0  0  0  0  0  0
   -6.5426   -7.0034   24.7840 H   0  0  0  0  0  0  0  0  0  0  0  0
   -6.8344   -5.5446   27.8673 H   0  0  0  0  0  0  0  0  0  0  0  0
   -5.6185   -3.4538   28.6656 H   0  0  0  0  0  0  0  0  0  0  0  0
   -1.7655   -3.8763   27.6766 H   0  0  0  0  0  0  0  0  0  0  0  0
    0.6169   -1.1528   26.4370 H   0  0  0  0  0  0  0  0  0  0  0  0
    1.0319   -2.6203   26.9703 H   0  0  0  0  0  0  0  0  0  0  0  0
   -0.2266   -2.2834   24.2507 H   0  0  0  0  0  0  0  0  0  0  0  0
    0.0277   -4.1171   24.0891 H   0  0  0  0  0  0  0  0  0  0  0  0
    2.4171   -5.3770   25.7411 H   0  0  0  0  0  0  0  0  0  0  0  0
    1.3154   -4.4670   26.7713 H   0  0  0  0  0  0  0  0  0  0  0  0
    5.8630   -1.7144   26.8599 H   0  0  0  0  0  0  0  0  0  0  0  0
    4.9513   -1.4022   24.4104 H   0  0  0  0  0  0  0  0  0  0  0  0
    3.4284   -3.2241   23.1898 H   0  0  0  0  0  0  0  0  0  0  0  0
    1.8467   -2.2445   23.4484 H   0  0  0  0  0  0  0  0  0  0  0  0
    3.3065   -5.4240   20.2636 H   0  0  0  0  0  0  0  0  0  0  0  0
    4.3448   -3.9244   17.7964 H   0  0  0  0  0  0  0  0  0  0  0  0
   -2.1441   -1.3375   28.5563 H   0  0  0  0  0  0  0  0  0  0  0  0
   -1.8289   -0.2509   27.1916 H   0  0  0  0  0  0  0  0  0  0  0  0
    0.4793   -2.0771   29.7030 H   0  0  0  0  0  0  0  0  0  0  0  0
   -0.7618    1.6782   28.2285 H   0  0  0  0  0  0  0  0  0  0  0  0
  1  2  1  0
  2  3  1  0
  3  4  1  0
  4  5  2  0
  5  6  1  0
  6  7  2  0
  7  8  1  0
  8  9  2  0
  2 10  1  0
 10 11  1  0
 10 12  1  0
 12 13  1  0
 13 14  1  0
 14 15  1  0
 15 16  1  0
 16 17  1  0
 17 18  1  0
 18 19  2  0
 19 20  1  0
 20 21  1  0
 21 22  1  0
 22 23  1  0
 23 24  2  0
 23 25  1  0
 25 26  1  0
 25 27  1  0
 10 28  1  0
 28 29  1  0
 29 30  1  0
 30 31  2  0
 31 32  1  0
 32 33  2  0
  9  4  1  0
 22 14  1  0
 33 29  1  0
 20 16  2  0
  1 34  1  0
  1 35  1  0
  1 36  1  0
  3 37  1  0
  3 38  1  0
  5 39  1  0
  6 40  1  0
  7 41  1  0
  8 42  1  0
  9 43  1  0
 11 44  1  0
 12 45  1  0
 12 46  1  0
 13 47  1  0
 14 48  1  0
 15 49  1  0
 15 50  1  0
 18 51  1  0
 19 52  1  0
 21 53  1  0
 21 54  1  0
 25 55  1  0
 26 56  1  0
 28 57  1  0
 28 58  1  0
 30 59  1  0
 33 60  1  0
M  END
>  <Energy>  (473) 
1415.6651940708032

>  <compound_id>  (473) 
2636

>  <target_id>  (473) 
1

>  <reference_id>  (473) 
177

>  <inspiration_ids>  (473) 
[177, 70]

>  <energy_score>  (473) 
1278.183056288028

>  <distance_score>  (473) 
5.9113083260715396

>  <path>  (473) 
/opt/xchem-fragalysis-2/maxwin/BulkDock/SCRATCH/505736/C2636-P177/C2636-P177.minimised.mol

>  <scratch_subdir>  (473) 
/opt/xchem-fragalysis-2/maxwin/BulkDock/SCRATCH/505736/C2636-P177

>  <fragmenstein_runtime>  (473) 
19.51183795928955

>  <fragmenstein_outcome>  (473) 
too moved

>  <fragmenstein_mode>  (473) 
expansion

>  <fragmenstein_error>  (473) 


$$$$
C2636-P70
     RDKit          3D

 60 63  0  0  0  0  0  0  0  0999 V2000
   -2.9257   -3.0750   24.3655 C   0  0  0  0  0  0  0  0  0  0  0  0
   -2.7777   -2.7710   26.0520 N   0  0  0  0  0  0  0  0  0  0  0  0
   -3.8772   -2.0512   26.2881 C   0  0  0  0  0  0  0  0  0  0  0  0
   -5.3742   -2.6083   26.1699 C   0  0  0  0  0  0  0  0  0  0  0  0
   -6.3482   -2.7780   24.4591 C   0  0  0  0  0  0  0  0  0  0  0  0
   -7.2620   -4.4821   24.1981 C   0  0  0  0  0  0  0  0  0  0  0  0
   -6.5851   -6.1739   25.0644 C   0  0  0  0  0  0  0  0  0  0  0  0
   -5.8944   -5.6860   26.9215 C   0  0  0  0  0  0  0  0  0  0  0  0
   -5.0805   -3.8861   27.5359 C   0  0  0  0  0  0  0  0  0  0  0  0
   -1.4705   -2.0649   27.1843 C   0  0  0  0  0  0  0  0  0  0  0  0
   -1.7838   -2.6290   28.4846 O   0  0  0  0  0  0  0  0  0  0  0  0
    0.4178   -2.0323   27.2616 C   0  0  0  0  0  0  0  0  0  0  0  0
    1.6603   -2.9399   26.8661 N   0  0  0  0  0  0  0  0  0  0  0  0
    2.9961   -2.3697   25.8313 C   0  0  0  0  0  0  0  0  0  0  0  0
    3.1784   -0.9868   26.5224 C   0  0  0  0  0  0  0  0  0  0  0  0
    4.5986   -0.9286   26.5585 C   0  0  0  0  0  0  0  0  0  0  0  0
    5.4890   -0.3596   27.8633 S   0  0  0  0  0  0  0  0  0  0  0  0
    6.8463   -1.2107   27.3132 C   0  0  0  0  0  0  0  0  0  0  0  0
    6.5715   -1.8598   26.1234 C   0  0  0  0  0  0  0  0  0  0  0  0
    5.2190   -1.6256   25.5622 C   0  0  0  0  0  0  0  0  0  0  0  0
    4.3345   -2.2419   24.1569 C   0  0  0  0  0  0  0  0  0  0  0  0
    2.7443   -2.1466   24.0540 N   0  0  0  0  0  0  0  0  0  0  0  0
    1.9418   -3.2545   22.7657 C   0  0  0  0  0  0  0  0  0  0  0  0
    1.6219   -4.3432   23.1480 O   0  0  0  0  0  0  0  0  0  0  0  0
    1.2853   -3.0288   21.0115 C   0  0  0  0  0  0  0  0  0  0  0  0
    1.2438   -1.1472   19.3172 S   0  0  0  0  0  0  0  0  0  0  0  0
    1.0058   -4.7081   20.7046 Cl  0  0  0  0  0  0  0  0  0  0  0  0
   -1.7708   -0.4846   27.3551 C   0  0  0  0  0  0  0  0  0  0  0  0
   -0.9868    0.3003   28.2819 N   0  0  0  0  0  0  0  0  0  0  0  0
   -0.8872    0.1170   29.6253 C   0  0  0  0  0  0  0  0  0  0  0  0
   -0.2043    1.1072   30.1498 N   0  0  0  0  0  0  0  0  0  0  0  0
    0.1234    1.9733   29.1311 N   0  0  0  0  0  0  0  0  0  0  0  0
   -0.3702    1.4851   28.0174 C   0  0  0  0  0  0  0  0  0  0  0  0
   -2.7155   -4.1267   24.2497 H   0  0  0  0  0  0  0  0  0  0  0  0
   -3.8642   -2.8679   23.9133 H   0  0  0  0  0  0  0  0  0  0  0  0
   -2.4456   -2.3997   23.6238 H   0  0  0  0  0  0  0  0  0  0  0  0
   -3.7863   -1.9141   27.3674 H   0  0  0  0  0  0  0  0  0  0  0  0
   -3.6497   -1.2038   25.6321 H   0  0  0  0  0  0  0  0  0  0  0  0
   -5.9591   -2.4380   23.5886 H   0  0  0  0  0  0  0  0  0  0  0  0
   -7.4760   -4.8327   23.2215 H   0  0  0  0  0  0  0  0  0  0  0  0
   -6.4560   -7.0401   24.4969 H   0  0  0  0  0  0  0  0  0  0  0  0
   -6.7512   -5.6488   27.6670 H   0  0  0  0  0  0  0  0  0  0  0  0
   -5.4612   -3.5985   28.5292 H   0  0  0  0  0  0  0  0  0  0  0  0
   -2.1465   -3.4930   28.1921 H   0  0  0  0  0  0  0  0  0  0  0  0
    0.6845   -1.0237   26.9443 H   0  0  0  0  0  0  0  0  0  0  0  0
    0.5463   -2.0221   28.3538 H   0  0  0  0  0  0  0  0  0  0  0  0
    2.1680   -3.1130   27.7352 H   0  0  0  0  0  0  0  0  0  0  0  0
    3.6314   -3.2206   26.0732 H   0  0  0  0  0  0  0  0  0  0  0  0
    2.8183   -0.1325   25.9634 H   0  0  0  0  0  0  0  0  0  0  0  0
    2.7831   -0.9338   27.5416 H   0  0  0  0  0  0  0  0  0  0  0  0
    7.7740   -1.2142   27.8670 H   0  0  0  0  0  0  0  0  0  0  0  0
    7.3550   -2.4489   25.6694 H   0  0  0  0  0  0  0  0  0  0  0  0
    4.8323   -1.8878   23.2619 H   0  0  0  0  0  0  0  0  0  0  0  0
    4.4310   -3.2783   24.4216 H   0  0  0  0  0  0  0  0  0  0  0  0
    0.3474   -2.7320   21.5190 H   0  0  0  0  0  0  0  0  0  0  0  0
    0.4013   -1.7754   18.4815 H   0  0  0  0  0  0  0  0  0  0  0  0
   -2.7667   -0.3305   27.7410 H   0  0  0  0  0  0  0  0  0  0  0  0
   -1.7153    0.0220   26.3896 H   0  0  0  0  0  0  0  0  0  0  0  0
   -1.3100   -0.7225   30.1593 H   0  0  0  0  0  0  0  0  0  0  0  0
   -0.3103    1.9470   27.0426 H   0  0  0  0  0  0  0  0  0  0  0  0
  1  2  1  0
  2  3  1  0
  3  4  1  0
  4  5  2  0
  5  6  1  0
  6  7  2  0
  7  8  1  0
  8  9  2  0
  2 10  1  0
 10 11  1  0
 10 12  1  0
 12 13  1  0
 13 14  1  0
 14 15  1  0
 15 16  1  0
 16 17  1  0
 17 18  1  0
 18 19  2  0
 19 20  1  0
 20 21  1  0
 21 22  1  0
 22 23  1  0
 23 24  2  0
 23 25  1  0
 25 26  1  0
 25 27  1  0
 10 28  1  0
 28 29  1  0
 29 30  1  0
 30 31  2  0
 31 32  1  0
 32 33  2  0
  9  4  1  0
 22 14  1  0
 33 29  1  0
 20 16  2  0
  1 34  1  0
  1 35  1  0
  1 36  1  0
  3 37  1  0
  3 38  1  0
  5 39  1  0
  6 40  1  0
  7 41  1  0
  8 42  1  0
  9 43  1  0
 11 44  1  0
 12 45  1  0
 12 46  1  0
 13 47  1  0
 14 48  1  0
 15 49  1  0
 15 50  1  0
 18 51  1  0
 19 52  1  0
 21 53  1  0
 21 54  1  0
 25 55  1  0
 26 56  1  0
 28 57  1  0
 28 58  1  0
 30 59  1  0
 33 60  1  0
M  END
>  <Energy>  (474) 
1457.2261503686905

>  <compound_id>  (474) 
2636

>  <target_id>  (474) 
1

>  <reference_id>  (474) 
70

>  <inspiration_ids>  (474) 
[177, 70]

>  <energy_score>  (474) 
1319.7440125859441

>  <distance_score>  (474) 
5.520780095845999

>  <path>  (474) 
/opt/xchem-fragalysis-2/maxwin/BulkDock/SCRATCH/505736/C2636-P70/C2636-P70.minimised.mol

>  <scratch_subdir>  (474) 
/opt/xchem-fragalysis-2/maxwin/BulkDock/SCRATCH/505736/C2636-P70

>  <fragmenstein_runtime>  (474) 
22.253096103668213

>  <fragmenstein_outcome>  (474) 
too moved

>  <fragmenstein_mode>  (474) 
expansion

>  <fragmenstein_error>  (474) 


$$$$
C2637-P177
     RDKit          3D

 57 61  0  0  0  0  0  0  0  0999 V2000
   -0.7023    4.6532   32.4667 C   0  0  0  0  0  0  0  0  0  0  0  0
   -0.6751    3.2415   32.7204 N   0  0  0  0  0  0  0  0  0  0  0  0
   -1.2699    2.4657   33.7598 C   0  0  0  0  0  0  0  0  0  0  0  0
   -1.8793    2.7990   34.7319 O   0  0  0  0  0  0  0  0  0  0  0  0
   -1.0595    0.9987   33.5768 C   0  0  0  0  0  0  0  0  0  0  0  0
   -2.1397    0.1350   33.7864 C   0  0  0  0  0  0  0  0  0  0  0  0
   -1.9742   -1.2416   33.6238 C   0  0  0  0  0  0  0  0  0  0  0  0
   -0.7246   -1.7636   33.2644 C   0  0  0  0  0  0  0  0  0  0  0  0
   -0.5647   -3.2139   33.0601 C   0  0  0  0  0  0  0  0  0  0  0  0
   -0.3669   -3.9717   34.1595 C   0  0  0  0  0  0  0  0  0  0  0  0
   -0.2443   -5.3494   34.0279 N   0  0  0  0  0  0  0  0  0  0  0  0
   -0.0416   -6.3526   34.9505 C   0  0  0  0  0  0  0  0  0  0  0  0
    0.0772   -6.1396   36.2701 N   0  0  0  0  0  0  0  0  0  0  0  0
    0.0226   -7.5065   34.3315 N   0  0  0  0  0  0  0  0  0  0  0  0
   -0.1483   -7.2939   32.9875 N   0  0  0  0  0  0  0  0  0  0  0  0
   -0.3094   -6.0050   32.8166 C   0  0  0  0  0  0  0  0  0  0  0  0
   -0.5223   -5.2259   31.6631 C   0  0  0  0  0  0  0  0  0  0  0  0
   -0.6298   -3.8792   31.7358 C   0  0  0  0  0  0  0  0  0  0  0  0
   -0.8994   -3.1134   30.6033 N   0  0  0  0  0  0  0  0  0  0  0  0
    0.1100   -2.7331   29.5647 C   0  0  0  0  0  0  0  0  0  0  0  0
    0.9440   -4.0275   29.2156 C   0  0  0  0  0  0  0  0  0  0  0  0
    1.8265   -3.6739   28.1015 C   0  0  0  0  0  0  0  0  0  0  0  0
    3.1363   -4.5699   27.5412 S   0  0  0  0  0  0  0  0  0  0  0  0
    3.5063   -3.3535   26.3957 C   0  0  0  0  0  0  0  0  0  0  0  0
    2.6210   -2.2936   26.4682 C   0  0  0  0  0  0  0  0  0  0  0  0
    1.6040   -2.4972   27.4490 C   0  0  0  0  0  0  0  0  0  0  0  0
    0.4724   -1.6114   27.9119 C   0  0  0  0  0  0  0  0  0  0  0  0
   -0.8338   -2.3083   28.4527 N   0  0  0  0  0  0  0  0  0  0  0  0
   -1.9305   -1.3674   28.4547 C   0  0  0  0  0  0  0  0  0  0  0  0
   -2.3145   -0.6132   29.3177 O   0  0  0  0  0  0  0  0  0  0  0  0
   -2.7696   -1.4719   27.1404 C   0  0  0  0  0  0  0  0  0  0  0  0
   -3.8195   -0.0868   26.6266 S   0  0  0  0  0  0  0  0  0  0  0  0
   -1.9306   -2.1887   25.7470 Cl  0  0  0  0  0  0  0  0  0  0  0  0
    0.3616   -0.8983   33.0787 C   0  0  0  0  0  0  0  0  0  0  0  0
    0.1974    0.4802   33.2384 C   0  0  0  0  0  0  0  0  0  0  0  0
   -1.3743    4.8401   31.6259 H   0  0  0  0  0  0  0  0  0  0  0  0
   -1.0633    5.1810   33.3524 H   0  0  0  0  0  0  0  0  0  0  0  0
    0.3073    4.9818   32.2115 H   0  0  0  0  0  0  0  0  0  0  0  0
   -0.3105    2.6178   32.0107 H   0  0  0  0  0  0  0  0  0  0  0  0
   -3.1102    0.5349   34.0733 H   0  0  0  0  0  0  0  0  0  0  0  0
   -2.8245   -1.9039   33.7801 H   0  0  0  0  0  0  0  0  0  0  0  0
   -0.3248   -3.5671   35.1628 H   0  0  0  0  0  0  0  0  0  0  0  0
    0.3977   -6.9244   36.8335 H   0  0  0  0  0  0  0  0  0  0  0  0
    0.3347   -5.2370   36.6518 H   0  0  0  0  0  0  0  0  0  0  0  0
   -0.6136   -5.7604   30.7268 H   0  0  0  0  0  0  0  0  0  0  0  0
   -1.3924   -2.2521   30.8558 H   0  0  0  0  0  0  0  0  0  0  0  0
    0.6946   -1.9431   30.0634 H   0  0  0  0  0  0  0  0  0  0  0  0
    0.2807   -4.8429   28.9040 H   0  0  0  0  0  0  0  0  0  0  0  0
    1.5369   -4.3502   30.0781 H   0  0  0  0  0  0  0  0  0  0  0  0
    4.3559   -3.4596   25.7334 H   0  0  0  0  0  0  0  0  0  0  0  0
    2.7450   -1.4258   25.8364 H   0  0  0  0  0  0  0  0  0  0  0  0
    0.1393   -1.0684   27.0224 H   0  0  0  0  0  0  0  0  0  0  0  0
    0.8010   -0.7756   28.5530 H   0  0  0  0  0  0  0  0  0  0  0  0
   -3.5884   -2.1191   27.4382 H   0  0  0  0  0  0  0  0  0  0  0  0
   -4.6715   -0.8376   25.9099 H   0  0  0  0  0  0  0  0  0  0  0  0
    1.3409   -1.2934   32.8178 H   0  0  0  0  0  0  0  0  0  0  0  0
    1.0561    1.1370   33.1244 H   0  0  0  0  0  0  0  0  0  0  0  0
  1  2  1  0
  2  3  1  0
  3  4  2  0
  3  5  1  0
  5  6  2  0
  6  7  1  0
  7  8  2  0
  8  9  1  0
  9 10  2  0
 10 11  1  0
 11 12  1  0
 12 13  1  0
 12 14  2  0
 14 15  1  0
 15 16  2  0
 16 17  1  0
 17 18  2  0
 18 19  1  0
 19 20  1  0
 20 21  1  0
 21 22  1  0
 22 23  1  0
 23 24  1  0
 24 25  2  0
 25 26  1  0
 26 27  1  0
 27 28  1  0
 28 29  1  0
 29 30  2  0
 29 31  1  0
 31 32  1  0
 31 33  1  0
  8 34  1  0
 34 35  2  0
 35  5  1  0
 18  9  1  0
 28 20  1  0
 16 11  1  0
 26 22  2  0
  1 36  1  0
  1 37  1  0
  1 38  1  0
  2 39  1  0
  6 40  1  0
  7 41  1  0
 10 42  1  0
 13 43  1  0
 13 44  1  0
 17 45  1  0
 19 46  1  0
 20 47  1  0
 21 48  1  0
 21 49  1  0
 24 50  1  0
 25 51  1  0
 27 52  1  0
 27 53  1  0
 31 54  1  0
 32 55  1  0
 34 56  1  0
 35 57  1  0
M  END
>  <Energy>  (475) 
150.37482868210165

>  <compound_id>  (475) 
2637

>  <target_id>  (475) 
1

>  <reference_id>  (475) 
177

>  <inspiration_ids>  (475) 
[177, 72]

>  <energy_score>  (475) 
0.9487118889944668

>  <distance_score>  (475) 
6.4276935438955185

>  <path>  (475) 
/opt/xchem-fragalysis-2/maxwin/BulkDock/SCRATCH/505736/C2637-P177/C2637-P177.minimised.mol

>  <scratch_subdir>  (475) 
/opt/xchem-fragalysis-2/maxwin/BulkDock/SCRATCH/505736/C2637-P177

>  <fragmenstein_runtime>  (475) 
51.69472694396973

>  <fragmenstein_outcome>  (475) 
too moved

>  <fragmenstein_mode>  (475) 
expansion

>  <fragmenstein_error>  (475) 


$$$$
C2637-P72
     RDKit          3D

 57 61  0  0  0  0  0  0  0  0999 V2000
    8.7024    0.1512   27.2277 C   0  0  0  0  0  0  0  0  0  0  0  0
    7.5412   -0.6270   27.8186 N   0  0  0  0  0  0  0  0  0  0  0  0
    6.4693   -0.5819   28.0049 C   0  0  0  0  0  0  0  0  0  0  0  0
    6.0994    0.9135   27.5464 O   0  0  0  0  0  0  0  0  0  0  0  0
    5.4449   -1.4267   28.5841 C   0  0  0  0  0  0  0  0  0  0  0  0
    4.1043   -1.0980   28.3961 C   0  0  0  0  0  0  0  0  0  0  0  0
    3.1081   -1.9389   28.8983 C   0  0  0  0  0  0  0  0  0  0  0  0
    3.4343   -3.1133   29.5992 C   0  0  0  0  0  0  0  0  0  0  0  0
    2.3445   -4.0252   30.0363 C   0  0  0  0  0  0  0  0  0  0  0  0
    2.3507   -4.5153   31.3001 C   0  0  0  0  0  0  0  0  0  0  0  0
    1.2565   -5.2445   31.7687 N   0  0  0  0  0  0  0  0  0  0  0  0
    1.0398   -5.9655   32.9277 C   0  0  0  0  0  0  0  0  0  0  0  0
    1.9682   -6.1088   33.8992 N   0  0  0  0  0  0  0  0  0  0  0  0
   -0.1594   -6.5038   32.8958 N   0  0  0  0  0  0  0  0  0  0  0  0
   -0.7674   -6.1340   31.7213 N   0  0  0  0  0  0  0  0  0  0  0  0
    0.0894   -5.3961   31.0520 C   0  0  0  0  0  0  0  0  0  0  0  0
    0.0652   -4.8721   29.7423 C   0  0  0  0  0  0  0  0  0  0  0  0
    1.1838   -4.3739   29.1662 C   0  0  0  0  0  0  0  0  0  0  0  0
    1.2595   -4.2848   27.7486 N   0  0  0  0  0  0  0  0  0  0  0  0
    2.2614   -5.0767   26.9219 C   0  0  0  0  0  0  0  0  0  0  0  0
    2.7491   -6.4450   27.6535 C   0  0  0  0  0  0  0  0  0  0  0  0
    4.2012   -6.4130   27.4992 C   0  0  0  0  0  0  0  0  0  0  0  0
    5.4518   -6.7100   28.5613 S   0  0  0  0  0  0  0  0  0  0  0  0
    6.5900   -6.0844   27.4392 C   0  0  0  0  0  0  0  0  0  0  0  0
    5.9816   -5.6974   26.2622 C   0  0  0  0  0  0  0  0  0  0  0  0
    4.5806   -5.9232   26.2996 C   0  0  0  0  0  0  0  0  0  0  0  0
    3.4905   -5.7340   25.2595 C   0  0  0  0  0  0  0  0  0  0  0  0
    2.3248   -4.5151   25.3028 N   0  0  0  0  0  0  0  0  0  0  0  0
    1.0044   -4.6228   23.8987 C   0  0  0  0  0  0  0  0  0  0  0  0
   -0.0555   -5.1805   23.8763 O   0  0  0  0  0  0  0  0  0  0  0  0
    1.3809   -3.7223   22.6631 C   0  0  0  0  0  0  0  0  0  0  0  0
    1.0629   -4.5105   21.1860 S   0  0  0  0  0  0  0  0  0  0  0  0
    2.7633   -2.8021   22.9687 Cl  0  0  0  0  0  0  0  0  0  0  0  0
    4.7881   -3.4015   29.8224 C   0  0  0  0  0  0  0  0  0  0  0  0
    5.7908   -2.5738   29.3031 C   0  0  0  0  0  0  0  0  0  0  0  0
    9.4255    0.4233   28.0127 H   0  0  0  0  0  0  0  0  0  0  0  0
    9.1844   -0.4141   26.4129 H   0  0  0  0  0  0  0  0  0  0  0  0
    8.3200    1.0806   26.7937 H   0  0  0  0  0  0  0  0  0  0  0  0
    8.4433   -1.0402   27.8584 H   0  0  0  0  0  0  0  0  0  0  0  0
    3.8289   -0.2081   27.8328 H   0  0  0  0  0  0  0  0  0  0  0  0
    2.0675   -1.6811   28.7038 H   0  0  0  0  0  0  0  0  0  0  0  0
    3.1543   -4.3449   32.0045 H   0  0  0  0  0  0  0  0  0  0  0  0
    1.5709   -6.4649   34.7693 H   0  0  0  0  0  0  0  0  0  0  0  0
    2.5632   -5.3090   34.0991 H   0  0  0  0  0  0  0  0  0  0  0  0
   -0.8116   -5.0657   29.1463 H   0  0  0  0  0  0  0  0  0  0  0  0
    0.3245   -4.4871   27.3846 H   0  0  0  0  0  0  0  0  0  0  0  0
    3.0864   -4.3988   27.2040 H   0  0  0  0  0  0  0  0  0  0  0  0
    2.3880   -7.3552   27.1722 H   0  0  0  0  0  0  0  0  0  0  0  0
    2.4735   -6.4924   28.7072 H   0  0  0  0  0  0  0  0  0  0  0  0
    7.6412   -6.0332   27.6885 H   0  0  0  0  0  0  0  0  0  0  0  0
    6.5195   -5.2771   25.4239 H   0  0  0  0  0  0  0  0  0  0  0  0
    3.1450   -6.6950   24.8860 H   0  0  0  0  0  0  0  0  0  0  0  0
    4.2336   -5.2804   24.6371 H   0  0  0  0  0  0  0  0  0  0  0  0
    0.6586   -2.9160   22.6447 H   0  0  0  0  0  0  0  0  0  0  0  0
    0.6546   -3.4500   20.4915 H   0  0  0  0  0  0  0  0  0  0  0  0
    5.0835   -4.2908   30.3712 H   0  0  0  0  0  0  0  0  0  0  0  0
    6.8344   -2.8341   29.4552 H   0  0  0  0  0  0  0  0  0  0  0  0
  1  2  1  0
  2  3  1  0
  3  4  2  0
  3  5  1  0
  5  6  2  0
  6  7  1  0
  7  8  2  0
  8  9  1  0
  9 10  2  0
 10 11  1  0
 11 12  1  0
 12 13  1  0
 12 14  2  0
 14 15  1  0
 15 16  2  0
 16 17  1  0
 17 18  2  0
 18 19  1  0
 19 20  1  0
 20 21  1  0
 21 22  1  0
 22 23  1  0
 23 24  1  0
 24 25  2  0
 25 26  1  0
 26 27  1  0
 27 28  1  0
 28 29  1  0
 29 30  2  0
 29 31  1  0
 31 32  1  0
 31 33  1  0
  8 34  1  0
 34 35  2  0
 35  5  1  0
 18  9  1  0
 28 20  1  0
 16 11  1  0
 26 22  2  0
  1 36  1  0
  1 37  1  0
  1 38  1  0
  2 39  1  0
  6 40  1  0
  7 41  1  0
 10 42  1  0
 13 43  1  0
 13 44  1  0
 17 45  1  0
 19 46  1  0
 20 47  1  0
 21 48  1  0
 21 49  1  0
 24 50  1  0
 25 51  1  0
 27 52  1  0
 27 53  1  0
 31 54  1  0
 32 55  1  0
 34 56  1  0
 35 57  1  0
M  END
>  <Energy>  (476) 
529.9324991224729

>  <compound_id>  (476) 
2637

>  <target_id>  (476) 
1

>  <reference_id>  (476) 
72

>  <inspiration_ids>  (476) 
[177, 72]

>  <energy_score>  (476) 
380.5063823293633

>  <distance_score>  (476) 
5.662473504242023

>  <path>  (476) 
/opt/xchem-fragalysis-2/maxwin/BulkDock/SCRATCH/505736/C2637-P72/C2637-P72.minimised.mol

>  <scratch_subdir>  (476) 
/opt/xchem-fragalysis-2/maxwin/BulkDock/SCRATCH/505736/C2637-P72

>  <fragmenstein_runtime>  (476) 
25.0993173122406

>  <fragmenstein_outcome>  (476) 
too moved

>  <fragmenstein_mode>  (476) 
expansion

>  <fragmenstein_error>  (476) 


$$$$
C2638-P177
     RDKit          3D

 59 62  0  0  0  0  0  0  0  0999 V2000
   -2.6182   -3.0471   31.7690 O   0  0  0  0  0  0  0  0  0  0  0  0
   -2.0657   -2.5499   32.7132 C   0  0  0  0  0  0  0  0  0  0  0  0
   -2.8751   -1.6185   33.6387 C   0  0  0  0  0  0  0  0  0  0  0  0
   -2.9933   -0.3088   33.0066 N   0  0  0  0  0  0  0  0  0  0  0  0
   -3.9371   -0.1271   32.0207 C   0  0  0  0  0  0  0  0  0  0  0  0
   -4.0274    1.0054   31.3111 C   0  0  0  0  0  0  0  0  0  0  0  0
   -5.0002    1.2092   30.1853 C   0  0  0  0  0  0  0  0  0  0  0  0
   -4.4121    1.3158   28.8474 N   0  0  0  0  0  0  0  0  0  0  0  0
   -3.6482    0.1221   28.4044 C   0  0  0  0  0  0  0  0  0  0  0  0
   -2.1194    0.4704   28.6591 C   0  0  0  0  0  0  0  0  0  0  0  0
   -1.3113   -0.5698   28.0198 C   0  0  0  0  0  0  0  0  0  0  0  0
    0.3383   -0.8489   28.2341 S   0  0  0  0  0  0  0  0  0  0  0  0
    0.2949   -2.1349   27.0982 C   0  0  0  0  0  0  0  0  0  0  0  0
   -0.9793   -2.3253   26.5938 C   0  0  0  0  0  0  0  0  0  0  0  0
   -1.9360   -1.4252   27.1667 C   0  0  0  0  0  0  0  0  0  0  0  0
   -3.4451   -1.3684   27.0382 C   0  0  0  0  0  0  0  0  0  0  0  0
   -4.1397    0.0065   26.9348 N   0  0  0  0  0  0  0  0  0  0  0  0
   -5.5007   -0.1568   26.3890 C   0  0  0  0  0  0  0  0  0  0  0  0
   -6.5545   -0.3315   26.9520 O   0  0  0  0  0  0  0  0  0  0  0  0
   -5.4770   -0.0109   24.8397 C   0  0  0  0  0  0  0  0  0  0  0  0
   -7.0133   -0.2990   23.9129 S   0  0  0  0  0  0  0  0  0  0  0  0
   -4.9384    1.6449   24.4452 Cl  0  0  0  0  0  0  0  0  0  0  0  0
   -3.0904    2.1038   31.6498 C   0  0  0  0  0  0  0  0  0  0  0  0
   -3.0571    3.1431   30.9989 O   0  0  0  0  0  0  0  0  0  0  0  0
   -2.2300    1.8646   32.6848 N   0  0  0  0  0  0  0  0  0  0  0  0
   -2.0610    0.6639   33.3220 C   0  0  0  0  0  0  0  0  0  0  0  0
   -1.1291    0.4825   34.1026 O   0  0  0  0  0  0  0  0  0  0  0  0
   -0.7029   -2.6405   33.1578 N   0  0  0  0  0  0  0  0  0  0  0  0
    0.3994   -3.4260   32.6687 C   0  0  0  0  0  0  0  0  0  0  0  0
    0.0224   -4.8820   32.5588 C   0  0  0  0  0  0  0  0  0  0  0  0
   -0.0534   -5.4930   31.2998 C   0  0  0  0  0  0  0  0  0  0  0  0
   -0.5258   -6.7978   31.1751 C   0  0  0  0  0  0  0  0  0  0  0  0
   -0.9296   -7.4999   32.3055 C   0  0  0  0  0  0  0  0  0  0  0  0
   -0.8155   -6.9237   33.5683 C   0  0  0  0  0  0  0  0  0  0  0  0
   -0.3393   -5.6200   33.6961 C   0  0  0  0  0  0  0  0  0  0  0  0
   -2.4153   -1.5354   34.6290 H   0  0  0  0  0  0  0  0  0  0  0  0
   -3.8755   -2.0400   33.7886 H   0  0  0  0  0  0  0  0  0  0  0  0
   -4.5902   -0.9721   31.8109 H   0  0  0  0  0  0  0  0  0  0  0  0
   -5.5730    2.1248   30.3782 H   0  0  0  0  0  0  0  0  0  0  0  0
   -5.7488    0.4063   30.1752 H   0  0  0  0  0  0  0  0  0  0  0  0
   -3.8440    2.1612   28.7995 H   0  0  0  0  0  0  0  0  0  0  0  0
   -4.0078   -0.7010   29.0429 H   0  0  0  0  0  0  0  0  0  0  0  0
   -1.9019    0.5062   29.7292 H   0  0  0  0  0  0  0  0  0  0  0  0
   -1.8689    1.4473   28.2314 H   0  0  0  0  0  0  0  0  0  0  0  0
    1.1981   -2.6757   26.8489 H   0  0  0  0  0  0  0  0  0  0  0  0
   -1.2159   -3.0988   25.8728 H   0  0  0  0  0  0  0  0  0  0  0  0
   -3.6394   -1.8149   26.0559 H   0  0  0  0  0  0  0  0  0  0  0  0
   -3.9974   -2.0336   27.7169 H   0  0  0  0  0  0  0  0  0  0  0  0
   -4.8150   -0.7729   24.4445 H   0  0  0  0  0  0  0  0  0  0  0  0
   -7.8084    0.2835   24.8248 H   0  0  0  0  0  0  0  0  0  0  0  0
   -1.5424    2.5763   32.8795 H   0  0  0  0  0  0  0  0  0  0  0  0
   -0.5712   -2.0188   33.9504 H   0  0  0  0  0  0  0  0  0  0  0  0
    0.6868   -3.0172   31.6943 H   0  0  0  0  0  0  0  0  0  0  0  0
    1.2439   -3.3038   33.3546 H   0  0  0  0  0  0  0  0  0  0  0  0
    0.2133   -4.9382   30.4016 H   0  0  0  0  0  0  0  0  0  0  0  0
   -0.5944   -7.2590   30.1927 H   0  0  0  0  0  0  0  0  0  0  0  0
   -1.3359   -8.4999   32.1980 H   0  0  0  0  0  0  0  0  0  0  0  0
   -1.1209   -7.4810   34.4499 H   0  0  0  0  0  0  0  0  0  0  0  0
   -0.2994   -5.1605   34.6813 H   0  0  0  0  0  0  0  0  0  0  0  0
  1  2  2  0
  2  3  1  0
  3  4  1  0
  4  5  1  0
  5  6  2  0
  6  7  1  0
  7  8  1  0
  8  9  1  0
  9 10  1  0
 10 11  1  0
 11 12  1  0
 12 13  1  0
 13 14  2  0
 14 15  1  0
 15 16  1  0
 16 17  1  0
 17 18  1  0
 18 19  2  0
 18 20  1  0
 20 21  1  0
 20 22  1  0
  6 23  1  0
 23 24  2  0
 23 25  1  0
 25 26  1  0
 26 27  2  0
  2 28  1  0
 28 29  1  0
 29 30  1  0
 30 31  2  0
 31 32  1  0
 32 33  2  0
 33 34  1  0
 34 35  2  0
 26  4  1  0
 35 30  1  0
 17  9  1  0
 15 11  2  0
  3 36  1  0
  3 37  1  0
  5 38  1  0
  7 39  1  0
  7 40  1  0
  8 41  1  0
  9 42  1  0
 10 43  1  0
 10 44  1  0
 13 45  1  0
 14 46  1  0
 16 47  1  0
 16 48  1  0
 20 49  1  0
 21 50  1  0
 25 51  1  0
 28 52  1  0
 29 53  1  0
 29 54  1  0
 31 55  1  0
 32 56  1  0
 33 57  1  0
 34 58  1  0
 35 59  1  0
M  END
>  <Energy>  (477) 
39.761836761785268

>  <compound_id>  (477) 
2638

>  <target_id>  (477) 
1

>  <reference_id>  (477) 
177

>  <inspiration_ids>  (477) 
[177, 78]

>  <energy_score>  (477) 
-8.503004933692182

>  <distance_score>  (477) 
7.012757622666085

>  <path>  (477) 
/opt/xchem-fragalysis-2/maxwin/BulkDock/SCRATCH/505736/C2638-P177/C2638-P177.minimised.mol

>  <scratch_subdir>  (477) 
/opt/xchem-fragalysis-2/maxwin/BulkDock/SCRATCH/505736/C2638-P177

>  <fragmenstein_runtime>  (477) 
41.54856300354004

>  <fragmenstein_outcome>  (477) 
too moved

>  <fragmenstein_mode>  (477) 
expansion

>  <fragmenstein_error>  (477) 


$$$$
C2638-P78
     RDKit          3D

 59 62  0  0  0  0  0  0  0  0999 V2000
   -1.1782   -0.6424   32.0282 O   0  0  0  0  0  0  0  0  0  0  0  0
   -0.1817   -1.1827   32.4147 C   0  0  0  0  0  0  0  0  0  0  0  0
    1.1874   -0.5323   32.0847 C   0  0  0  0  0  0  0  0  0  0  0  0
    2.2919   -1.5016   32.0540 N   0  0  0  0  0  0  0  0  0  0  0  0
    2.3492   -2.4057   31.0090 C   0  0  0  0  0  0  0  0  0  0  0  0
    3.1872   -3.4476   31.0133 C   0  0  0  0  0  0  0  0  0  0  0  0
    3.3355   -4.5095   29.9652 C   0  0  0  0  0  0  0  0  0  0  0  0
    2.6280   -4.2613   28.7022 N   0  0  0  0  0  0  0  0  0  0  0  0
    3.0336   -5.1940   27.6248 C   0  0  0  0  0  0  0  0  0  0  0  0
    4.4481   -5.8919   27.5469 C   0  0  0  0  0  0  0  0  0  0  0  0
    5.3412   -4.7900   27.2291 C   0  0  0  0  0  0  0  0  0  0  0  0
    6.9470   -4.6064   27.6771 S   0  0  0  0  0  0  0  0  0  0  0  0
    6.9322   -2.9829   27.1173 C   0  0  0  0  0  0  0  0  0  0  0  0
    5.7122   -2.6304   26.5705 C   0  0  0  0  0  0  0  0  0  0  0  0
    4.7791   -3.7035   26.6349 C   0  0  0  0  0  0  0  0  0  0  0  0
    3.3196   -3.6875   26.2603 C   0  0  0  0  0  0  0  0  0  0  0  0
    2.2725   -4.9219   26.3434 N   0  0  0  0  0  0  0  0  0  0  0  0
    2.2452   -5.6436   25.0821 C   0  0  0  0  0  0  0  0  0  0  0  0
    2.9085   -6.5987   24.7186 O   0  0  0  0  0  0  0  0  0  0  0  0
    0.7568   -5.0701   23.7584 C   0  0  0  0  0  0  0  0  0  0  0  0
    1.0561   -4.6679   21.5362 S   0  0  0  0  0  0  0  0  0  0  0  0
    1.3326   -3.2727   22.6812 Cl  0  0  0  0  0  0  0  0  0  0  0  0
    4.0900   -3.5795   32.1868 C   0  0  0  0  0  0  0  0  0  0  0  0
    4.7204   -4.6090   32.4013 O   0  0  0  0  0  0  0  0  0  0  0  0
    4.1549   -2.5042   33.0220 N   0  0  0  0  0  0  0  0  0  0  0  0
    3.1882   -1.5435   33.1114 C   0  0  0  0  0  0  0  0  0  0  0  0
    3.1034   -0.8348   34.1095 O   0  0  0  0  0  0  0  0  0  0  0  0
   -0.0047   -2.3668   33.2039 N   0  0  0  0  0  0  0  0  0  0  0  0
   -0.9553   -3.3207   33.6945 C   0  0  0  0  0  0  0  0  0  0  0  0
   -0.6747   -4.7158   33.1813 C   0  0  0  0  0  0  0  0  0  0  0  0
   -0.4764   -4.9588   31.8136 C   0  0  0  0  0  0  0  0  0  0  0  0
   -0.3502   -6.2632   31.3333 C   0  0  0  0  0  0  0  0  0  0  0  0
   -0.4374   -7.3402   32.2104 C   0  0  0  0  0  0  0  0  0  0  0  0
   -0.6117   -7.1158   33.5737 C   0  0  0  0  0  0  0  0  0  0  0  0
   -0.7244   -5.8113   34.0570 C   0  0  0  0  0  0  0  0  0  0  0  0
    1.3746    0.2482   32.8293 H   0  0  0  0  0  0  0  0  0  0  0  0
    1.1222   -0.0591   31.0978 H   0  0  0  0  0  0  0  0  0  0  0  0
    1.6485   -2.2478   30.1924 H   0  0  0  0  0  0  0  0  0  0  0  0
    2.9995   -5.4682   30.3772 H   0  0  0  0  0  0  0  0  0  0  0  0
    4.4100   -4.5826   29.7772 H   0  0  0  0  0  0  0  0  0  0  0  0
    1.6220   -4.3519   28.8396 H   0  0  0  0  0  0  0  0  0  0  0  0
    2.4755   -6.0919   27.9349 H   0  0  0  0  0  0  0  0  0  0  0  0
    4.6999   -6.3813   28.4938 H   0  0  0  0  0  0  0  0  0  0  0  0
    4.4665   -6.6579   26.7653 H   0  0  0  0  0  0  0  0  0  0  0  0
    7.8259   -2.3785   27.1829 H   0  0  0  0  0  0  0  0  0  0  0  0
    5.5156   -1.6517   26.1493 H   0  0  0  0  0  0  0  0  0  0  0  0
    3.4171   -3.5381   25.1853 H   0  0  0  0  0  0  0  0  0  0  0  0
    2.8439   -2.8188   26.7342 H   0  0  0  0  0  0  0  0  0  0  0  0
    0.5557   -5.9837   23.1971 H   0  0  0  0  0  0  0  0  0  0  0  0
    2.1879   -4.0010   21.6959 H   0  0  0  0  0  0  0  0  0  0  0  0
    4.7390   -2.6079   33.8384 H   0  0  0  0  0  0  0  0  0  0  0  0
    0.9780   -2.4816   33.4094 H   0  0  0  0  0  0  0  0  0  0  0  0
   -0.9034   -3.2868   34.7874 H   0  0  0  0  0  0  0  0  0  0  0  0
   -1.9523   -3.0011   33.3781 H   0  0  0  0  0  0  0  0  0  0  0  0
   -0.4618   -4.1277   31.1110 H   0  0  0  0  0  0  0  0  0  0  0  0
   -0.2199   -6.4389   30.2705 H   0  0  0  0  0  0  0  0  0  0  0  0
   -0.3815   -8.3555   31.8305 H   0  0  0  0  0  0  0  0  0  0  0  0
   -0.6821   -7.9563   34.2610 H   0  0  0  0  0  0  0  0  0  0  0  0
   -0.8950   -5.6533   35.1205 H   0  0  0  0  0  0  0  0  0  0  0  0
  1  2  2  0
  2  3  1  0
  3  4  1  0
  4  5  1  0
  5  6  2  0
  6  7  1  0
  7  8  1  0
  8  9  1  0
  9 10  1  0
 10 11  1  0
 11 12  1  0
 12 13  1  0
 13 14  2  0
 14 15  1  0
 15 16  1  0
 16 17  1  0
 17 18  1  0
 18 19  2  0
 18 20  1  0
 20 21  1  0
 20 22  1  0
  6 23  1  0
 23 24  2  0
 23 25  1  0
 25 26  1  0
 26 27  2  0
  2 28  1  0
 28 29  1  0
 29 30  1  0
 30 31  2  0
 31 32  1  0
 32 33  2  0
 33 34  1  0
 34 35  2  0
 26  4  1  0
 35 30  1  0
 17  9  1  0
 15 11  2  0
  3 36  1  0
  3 37  1  0
  5 38  1  0
  7 39  1  0
  7 40  1  0
  8 41  1  0
  9 42  1  0
 10 43  1  0
 10 44  1  0
 13 45  1  0
 14 46  1  0
 16 47  1  0
 16 48  1  0
 20 49  1  0
 21 50  1  0
 25 51  1  0
 28 52  1  0
 29 53  1  0
 29 54  1  0
 31 55  1  0
 32 56  1  0
 33 57  1  0
 34 58  1  0
 35 59  1  0
M  END
>  <Energy>  (478) 
271.62430022840471

>  <compound_id>  (478) 
2638

>  <target_id>  (478) 
1

>  <reference_id>  (478) 
78

>  <inspiration_ids>  (478) 
[177, 78]

>  <energy_score>  (478) 
223.35945853292128

>  <distance_score>  (478) 
5.227432707715993

>  <path>  (478) 
/opt/xchem-fragalysis-2/maxwin/BulkDock/SCRATCH/505736/C2638-P78/C2638-P78.minimised.mol

>  <scratch_subdir>  (478) 
/opt/xchem-fragalysis-2/maxwin/BulkDock/SCRATCH/505736/C2638-P78

>  <fragmenstein_runtime>  (478) 
36.371179819107056

>  <fragmenstein_outcome>  (478) 
too moved

>  <fragmenstein_mode>  (478) 
expansion

>  <fragmenstein_error>  (478) 


$$$$
C2639-P177
     RDKit          3D

 66 70  0  0  0  0  0  0  0  0999 V2000
    3.0482   -4.9642   30.9696 O   0  0  0  0  0  0  0  0  0  0  0  0
    2.0796   -5.0357   30.2264 C   0  0  0  0  0  0  0  0  0  0  0  0
    1.9669   -5.5997   28.7503 C   0  0  0  0  0  0  0  0  0  0  0  0
    0.6837   -6.2815   28.4160 N   0  0  0  0  0  0  0  0  0  0  0  0
    0.2837   -7.5465   28.6824 C   0  0  0  0  0  0  0  0  0  0  0  0
   -0.7713   -7.8482   28.0037 N   0  0  0  0  0  0  0  0  0  0  0  0
   -1.1862   -6.7682   27.3459 N   0  0  0  0  0  0  0  0  0  0  0  0
   -0.3579   -5.8288   27.6643 C   0  0  0  0  0  0  0  0  0  0  0  0
    0.9098   -4.6640   30.7659 N   0  0  0  0  0  0  0  0  0  0  0  0
    0.6207   -3.2306   30.5929 C   0  0  0  0  0  0  0  0  0  0  0  0
   -0.0887   -3.2870   29.2654 C   0  0  0  0  0  0  0  0  0  0  0  0
    0.0545   -2.2766   28.0859 N   0  0  0  0  0  0  0  0  0  0  0  0
    0.7749   -2.7876   26.7429 C   0  0  0  0  0  0  0  0  0  0  0  0
    0.1231   -2.6184   25.3012 C   0  0  0  0  0  0  0  0  0  0  0  0
    0.8172   -2.0692   23.7443 N   0  0  0  0  0  0  0  0  0  0  0  0
    0.1337   -1.9316   22.1255 C   0  0  0  0  0  0  0  0  0  0  0  0
   -0.9231   -2.3684   22.1159 O   0  0  0  0  0  0  0  0  0  0  0  0
    1.0498   -0.8843   20.3083 C   0  0  0  0  0  0  0  0  0  0  0  0
    2.3477    1.1197   21.1412 S   0  0  0  0  0  0  0  0  0  0  0  0
    0.7290   -0.8255   18.2732 Cl  0  0  0  0  0  0  0  0  0  0  0  0
    1.5337   -3.2882   23.9071 C   0  0  0  0  0  0  0  0  0  0  0  0
    2.5893   -2.9619   25.1077 C   0  0  0  0  0  0  0  0  0  0  0  0
    3.9758   -2.6134   25.0068 C   0  0  0  0  0  0  0  0  0  0  0  0
    4.5681   -2.2928   26.2122 C   0  0  0  0  0  0  0  0  0  0  0  0
    3.4337   -2.2481   27.4822 S   0  0  0  0  0  0  0  0  0  0  0  0
    2.1960   -2.6650   26.4195 C   0  0  0  0  0  0  0  0  0  0  0  0
   -1.3787   -4.0720   29.7922 C   0  0  0  0  0  0  0  0  0  0  0  0
   -1.3310   -5.7118   30.7409 C   0  0  0  0  0  0  0  0  0  0  0  0
   -2.3037   -7.2276   30.1070 C   0  0  0  0  0  0  0  0  0  0  0  0
   -3.5680   -7.7608   30.1270 C   0  0  0  0  0  0  0  0  0  0  0  0
   -5.1518   -7.7271   28.8951 C   0  0  0  0  0  0  0  0  0  0  0  0
   -6.0688   -6.1474   28.5177 C   0  0  0  0  0  0  0  0  0  0  0  0
   -6.6468   -6.8384   29.4327 C   0  0  0  0  0  0  0  0  0  0  0  0
   -6.7815   -8.7202   29.0150 O   0  0  0  0  0  0  0  0  0  0  0  0
   -5.3751   -5.9088   29.4011 C   0  0  0  0  0  0  0  0  0  0  0  0
   -3.5244   -7.0201   29.3410 C   0  0  0  0  0  0  0  0  0  0  0  0
    0.0555   -5.6612   31.4453 C   0  0  0  0  0  0  0  0  0  0  0  0
    2.1162   -4.7912   28.0465 H   0  0  0  0  0  0  0  0  0  0  0  0
    2.7621   -6.2908   28.4815 H   0  0  0  0  0  0  0  0  0  0  0  0
    0.6859   -8.3061   29.3070 H   0  0  0  0  0  0  0  0  0  0  0  0
   -0.5906   -4.8460   27.3259 H   0  0  0  0  0  0  0  0  0  0  0  0
    0.0422   -2.8395   31.4356 H   0  0  0  0  0  0  0  0  0  0  0  0
    1.5574   -2.6680   30.5082 H   0  0  0  0  0  0  0  0  0  0  0  0
    0.4443   -4.0233   28.7486 H   0  0  0  0  0  0  0  0  0  0  0  0
   -0.9031   -2.0476   27.8053 H   0  0  0  0  0  0  0  0  0  0  0  0
    0.7483   -3.8511   26.8474 H   0  0  0  0  0  0  0  0  0  0  0  0
   -0.4845   -3.4961   25.0340 H   0  0  0  0  0  0  0  0  0  0  0  0
   -0.7823   -2.0217   25.4947 H   0  0  0  0  0  0  0  0  0  0  0  0
    1.8230   -1.4572   19.8151 H   0  0  0  0  0  0  0  0  0  0  0  0
    1.7427    1.9607   20.2911 H   0  0  0  0  0  0  0  0  0  0  0  0
    2.1542   -3.4269   23.0325 H   0  0  0  0  0  0  0  0  0  0  0  0
    0.8738   -4.0996   23.8331 H   0  0  0  0  0  0  0  0  0  0  0  0
    4.5257   -2.5038   24.0857 H   0  0  0  0  0  0  0  0  0  0  0  0
    5.5973   -2.0072   26.3807 H   0  0  0  0  0  0  0  0  0  0  0  0
   -1.8903   -4.1866   28.8650 H   0  0  0  0  0  0  0  0  0  0  0  0
   -1.9624   -3.3978   30.4354 H   0  0  0  0  0  0  0  0  0  0  0  0
   -1.9192   -5.5242   31.6275 H   0  0  0  0  0  0  0  0  0  0  0  0
   -3.7725   -8.3470   31.1091 H   0  0  0  0  0  0  0  0  0  0  0  0
   -4.9213   -8.0648   27.8366 H   0  0  0  0  0  0  0  0  0  0  0  0
   -7.2479   -5.9387   28.5077 H   0  0  0  0  0  0  0  0  0  0  0  0
   -6.7174   -6.5401   30.6844 H   0  0  0  0  0  0  0  0  0  0  0  0
   -6.6787   -8.8026   28.0451 H   0  0  0  0  0  0  0  0  0  0  0  0
   -5.5799   -4.8602   29.8794 H   0  0  0  0  0  0  0  0  0  0  0  0
   -3.1285   -7.2267   28.2012 H   0  0  0  0  0  0  0  0  0  0  0  0
   -0.0417   -5.3254   32.4844 H   0  0  0  0  0  0  0  0  0  0  0  0
    0.5270   -6.6452   31.4532 H   0  0  0  0  0  0  0  0  0  0  0  0
  1  2  2  0
  2  3  1  0
  3  4  1  0
  4  5  1  0
  5  6  2  0
  6  7  1  0
  7  8  2  0
  2  9  1  0
  9 10  1  0
 10 11  1  0
 11 12  1  0
 12 13  1  0
 13 14  1  0
 14 15  1  0
 15 16  1  0
 16 17  2  0
 16 18  1  0
 18 19  1  0
 18 20  1  0
 15 21  1  0
 21 22  1  0
 22 23  1  0
 23 24  2  0
 24 25  1  0
 25 26  1  0
 11 27  1  0
 27 28  1  0
 28 29  1  0
 29 30  2  0
 30 31  1  0
 31 32  2  0
 32 33  1  0
 33 34  1  0
 32 35  1  0
 35 36  2  0
 28 37  1  0
  8  4  1  0
 37  9  1  0
 26 13  1  0
 36 29  1  0
 26 22  2  0
  3 38  1  0
  3 39  1  0
  5 40  1  0
  8 41  1  0
 10 42  1  0
 10 43  1  0
 11 44  1  0
 12 45  1  0
 13 46  1  0
 14 47  1  0
 14 48  1  0
 18 49  1  0
 19 50  1  0
 21 51  1  0
 21 52  1  0
 23 53  1  0
 24 54  1  0
 27 55  1  0
 27 56  1  0
 28 57  1  0
 30 58  1  0
 31 59  1  0
 33 60  1  0
 33 61  1  0
 34 62  1  0
 35 63  1  0
 36 64  1  0
 37 65  1  0
 37 66  1  0
M  END
>  <Energy>  (479) 
2057.6381830327373

>  <compound_id>  (479) 
2639

>  <target_id>  (479) 
1

>  <reference_id>  (479) 
177

>  <inspiration_ids>  (479) 
[177, 105]

>  <energy_score>  (479) 
1869.7452203452353

>  <distance_score>  (479) 
5.7512962754829084

>  <path>  (479) 
/opt/xchem-fragalysis-2/maxwin/BulkDock/SCRATCH/505736/C2639-P177/C2639-P177.minimised.mol

>  <scratch_subdir>  (479) 
/opt/xchem-fragalysis-2/maxwin/BulkDock/SCRATCH/505736/C2639-P177

>  <fragmenstein_runtime>  (479) 
37.08968424797058

>  <fragmenstein_outcome>  (479) 
too moved

>  <fragmenstein_mode>  (479) 
expansion

>  <fragmenstein_error>  (479) 


$$$$
C2639-P105
     RDKit          3D

 66 70  0  0  0  0  0  0  0  0999 V2000
    1.6821   -1.7977   33.8418 O   0  0  0  0  0  0  0  0  0  0  0  0
    1.5932   -3.0127   33.6550 C   0  0  0  0  0  0  0  0  0  0  0  0
    1.7731   -3.9728   34.8150 C   0  0  0  0  0  0  0  0  0  0  0  0
    1.4319   -5.3445   34.5315 N   0  0  0  0  0  0  0  0  0  0  0  0
    2.2544   -6.2680   33.9727 C   0  0  0  0  0  0  0  0  0  0  0  0
    1.5940   -7.3870   33.8071 N   0  0  0  0  0  0  0  0  0  0  0  0
    0.3280   -7.2064   34.3138 N   0  0  0  0  0  0  0  0  0  0  0  0
    0.2549   -5.9796   34.7795 C   0  0  0  0  0  0  0  0  0  0  0  0
    1.2290   -3.4983   32.4172 N   0  0  0  0  0  0  0  0  0  0  0  0
    2.2234   -3.8004   31.3951 C   0  0  0  0  0  0  0  0  0  0  0  0
    1.9213   -4.9699   30.3896 C   0  0  0  0  0  0  0  0  0  0  0  0
    2.8640   -4.7733   29.2572 N   0  0  0  0  0  0  0  0  0  0  0  0
    3.0308   -5.6700   28.0904 C   0  0  0  0  0  0  0  0  0  0  0  0
    2.1196   -5.2330   26.8331 C   0  0  0  0  0  0  0  0  0  0  0  0
    2.2584   -4.7290   25.2884 N   0  0  0  0  0  0  0  0  0  0  0  0
    0.9203   -4.7266   23.9130 C   0  0  0  0  0  0  0  0  0  0  0  0
   -0.1954   -5.1725   23.9108 O   0  0  0  0  0  0  0  0  0  0  0  0
    1.4671   -3.7789   22.5488 C   0  0  0  0  0  0  0  0  0  0  0  0
    1.1391   -4.6398   21.1475 S   0  0  0  0  0  0  0  0  0  0  0  0
    0.4218   -2.4218   22.2810 Cl  0  0  0  0  0  0  0  0  0  0  0  0
    3.3271   -6.0537   25.3031 C   0  0  0  0  0  0  0  0  0  0  0  0
    4.5547   -5.6914   26.1372 C   0  0  0  0  0  0  0  0  0  0  0  0
    5.9015   -5.5052   25.7487 C   0  0  0  0  0  0  0  0  0  0  0  0
    6.7150   -5.2507   26.8353 C   0  0  0  0  0  0  0  0  0  0  0  0
    5.8573   -5.2931   28.3185 S   0  0  0  0  0  0  0  0  0  0  0  0
    4.4062   -5.5840   27.5064 C   0  0  0  0  0  0  0  0  0  0  0  0
    0.3836   -5.0967   30.1333 C   0  0  0  0  0  0  0  0  0  0  0  0
   -0.4358   -5.0521   31.4558 C   0  0  0  0  0  0  0  0  0  0  0  0
   -1.9509   -5.3340   31.4246 C   0  0  0  0  0  0  0  0  0  0  0  0
   -2.5431   -7.1078   31.6814 C   0  0  0  0  0  0  0  0  0  0  0  0
   -4.3615   -7.6232   31.9385 C   0  0  0  0  0  0  0  0  0  0  0  0
   -5.6989   -5.9816   31.8381 C   0  0  0  0  0  0  0  0  0  0  0  0
   -6.8220   -6.5153   31.2518 C   0  0  0  0  0  0  0  0  0  0  0  0
   -6.4401   -6.5393   29.5862 O   0  0  0  0  0  0  0  0  0  0  0  0
   -5.0015   -4.2006   31.6441 C   0  0  0  0  0  0  0  0  0  0  0  0
   -3.1604   -3.8490   31.3813 C   0  0  0  0  0  0  0  0  0  0  0  0
   -0.1749   -3.7074   32.1338 C   0  0  0  0  0  0  0  0  0  0  0  0
    2.8194   -3.9438   35.1372 H   0  0  0  0  0  0  0  0  0  0  0  0
    1.1394   -3.6397   35.6441 H   0  0  0  0  0  0  0  0  0  0  0  0
    3.2828   -6.0769   33.7025 H   0  0  0  0  0  0  0  0  0  0  0  0
   -0.6046   -5.5244   35.2546 H   0  0  0  0  0  0  0  0  0  0  0  0
    3.1968   -3.9561   31.8777 H   0  0  0  0  0  0  0  0  0  0  0  0
    2.3108   -2.8616   30.8309 H   0  0  0  0  0  0  0  0  0  0  0  0
    2.2181   -5.8952   30.8959 H   0  0  0  0  0  0  0  0  0  0  0  0
    2.8849   -3.7971   28.9555 H   0  0  0  0  0  0  0  0  0  0  0  0
    2.8076   -6.7045   28.3708 H   0  0  0  0  0  0  0  0  0  0  0  0
    1.1690   -4.8787   27.2334 H   0  0  0  0  0  0  0  0  0  0  0  0
    2.4804   -4.1863   27.0170 H   0  0  0  0  0  0  0  0  0  0  0  0
    2.4024   -3.2511   22.7207 H   0  0  0  0  0  0  0  0  0  0  0  0
    0.7091   -5.6718   21.8702 H   0  0  0  0  0  0  0  0  0  0  0  0
    3.6766   -6.5216   24.4000 H   0  0  0  0  0  0  0  0  0  0  0  0
    2.9669   -6.9373   25.8397 H   0  0  0  0  0  0  0  0  0  0  0  0
    6.2745   -5.5400   24.7325 H   0  0  0  0  0  0  0  0  0  0  0  0
    7.7768   -5.0439   26.8230 H   0  0  0  0  0  0  0  0  0  0  0  0
    0.1928   -6.0655   29.6766 H   0  0  0  0  0  0  0  0  0  0  0  0
    0.0400   -4.3128   29.4487 H   0  0  0  0  0  0  0  0  0  0  0  0
   -0.0314   -5.8484   32.0833 H   0  0  0  0  0  0  0  0  0  0  0  0
   -1.7868   -7.8945   31.7399 H   0  0  0  0  0  0  0  0  0  0  0  0
   -4.6691   -8.6426   31.8598 H   0  0  0  0  0  0  0  0  0  0  0  0
   -7.7301   -6.8193   31.8042 H   0  0  0  0  0  0  0  0  0  0  0  0
   -6.5085   -7.3939   31.6939 H   0  0  0  0  0  0  0  0  0  0  0  0
   -5.7020   -7.1590   29.4556 H   0  0  0  0  0  0  0  0  0  0  0  0
   -5.7009   -3.3829   31.4630 H   0  0  0  0  0  0  0  0  0  0  0  0
   -2.8135   -2.8279   31.2423 H   0  0  0  0  0  0  0  0  0  0  0  0
   -0.4797   -2.8786   31.4830 H   0  0  0  0  0  0  0  0  0  0  0  0
   -0.7465   -3.6089   33.0654 H   0  0  0  0  0  0  0  0  0  0  0  0
  1  2  2  0
  2  3  1  0
  3  4  1  0
  4  5  1  0
  5  6  2  0
  6  7  1  0
  7  8  2  0
  2  9  1  0
  9 10  1  0
 10 11  1  0
 11 12  1  0
 12 13  1  0
 13 14  1  0
 14 15  1  0
 15 16  1  0
 16 17  2  0
 16 18  1  0
 18 19  1  0
 18 20  1  0
 15 21  1  0
 21 22  1  0
 22 23  1  0
 23 24  2  0
 24 25  1  0
 25 26  1  0
 11 27  1  0
 27 28  1  0
 28 29  1  0
 29 30  2  0
 30 31  1  0
 31 32  2  0
 32 33  1  0
 33 34  1  0
 32 35  1  0
 35 36  2  0
 28 37  1  0
  8  4  1  0
 37  9  1  0
 26 13  1  0
 36 29  1  0
 26 22  2  0
  3 38  1  0
  3 39  1  0
  5 40  1  0
  8 41  1  0
 10 42  1  0
 10 43  1  0
 11 44  1  0
 12 45  1  0
 13 46  1  0
 14 47  1  0
 14 48  1  0
 18 49  1  0
 19 50  1  0
 21 51  1  0
 21 52  1  0
 23 53  1  0
 24 54  1  0
 27 55  1  0
 27 56  1  0
 28 57  1  0
 30 58  1  0
 31 59  1  0
 33 60  1  0
 33 61  1  0
 34 62  1  0
 35 63  1  0
 36 64  1  0
 37 65  1  0
 37 66  1  0
M  END
>  <Energy>  (480) 
990.43660237499421

>  <compound_id>  (480) 
2639

>  <target_id>  (480) 
1

>  <reference_id>  (480) 
105

>  <inspiration_ids>  (480) 
[177, 105]

>  <energy_score>  (480) 
802.5436396874682

>  <distance_score>  (480) 
5.650783375808158

>  <path>  (480) 
/opt/xchem-fragalysis-2/maxwin/BulkDock/SCRATCH/505736/C2639-P105/C2639-P105.minimised.mol

>  <scratch_subdir>  (480) 
/opt/xchem-fragalysis-2/maxwin/BulkDock/SCRATCH/505736/C2639-P105

>  <fragmenstein_runtime>  (480) 
28.81041646003723

>  <fragmenstein_outcome>  (480) 
too moved

>  <fragmenstein_mode>  (480) 
expansion

>  <fragmenstein_error>  (480) 


$$$$
C2640-P177
     RDKit          3D

 66 70  0  0  0  0  0  0  0  0999 V2000
   -1.7601   -6.2610   32.1991 O   0  0  0  0  0  0  0  0  0  0  0  0
   -0.5903   -6.2625   31.9124 C   0  0  0  0  0  0  0  0  0  0  0  0
    0.1535   -7.7580   32.4603 C   0  0  0  0  0  0  0  0  0  0  0  0
   -0.4717   -9.3795   33.0549 N   0  0  0  0  0  0  0  0  0  0  0  0
    0.2750  -10.8687   34.3269 C   0  0  0  0  0  0  0  0  0  0  0  0
    0.6882  -12.3696   33.1912 N   0  0  0  0  0  0  0  0  0  0  0  0
    0.3946  -11.6357   31.2724 N   0  0  0  0  0  0  0  0  0  0  0  0
   -0.8142  -10.2618   31.4143 C   0  0  0  0  0  0  0  0  0  0  0  0
    0.2664   -5.0257   31.2565 N   0  0  0  0  0  0  0  0  0  0  0  0
   -0.1218   -3.6448   30.9783 C   0  0  0  0  0  0  0  0  0  0  0  0
   -1.2185   -3.0675   30.1459 C   0  0  0  0  0  0  0  0  0  0  0  0
   -0.7612   -2.6961   28.7606 C   0  0  0  0  0  0  0  0  0  0  0  0
    0.4598   -3.5361   28.2272 C   0  0  0  0  0  0  0  0  0  0  0  0
    0.2231   -2.9751   26.4872 N   0  0  0  0  0  0  0  0  0  0  0  0
    0.8669   -3.5595   24.9182 C   0  0  0  0  0  0  0  0  0  0  0  0
    2.0914   -4.4078   25.8555 C   0  0  0  0  0  0  0  0  0  0  0  0
    3.1847   -3.5117   26.0863 C   0  0  0  0  0  0  0  0  0  0  0  0
    4.5143   -3.6893   27.0970 S   0  0  0  0  0  0  0  0  0  0  0  0
    5.0736   -2.1443   26.6282 C   0  0  0  0  0  0  0  0  0  0  0  0
    4.3441   -1.6707   25.5550 C   0  0  0  0  0  0  0  0  0  0  0  0
    3.2803   -2.5426   25.1664 C   0  0  0  0  0  0  0  0  0  0  0  0
    2.6207   -2.7777   23.8165 C   0  0  0  0  0  0  0  0  0  0  0  0
    1.1662   -2.6605   23.3054 N   0  0  0  0  0  0  0  0  0  0  0  0
    1.0221   -3.2372   21.4698 C   0  0  0  0  0  0  0  0  0  0  0  0
    0.7723   -4.4214   21.2116 O   0  0  0  0  0  0  0  0  0  0  0  0
    1.2584   -1.8600   19.7353 C   0  0  0  0  0  0  0  0  0  0  0  0
    0.1918   -1.4090   18.0585 S   0  0  0  0  0  0  0  0  0  0  0  0
    2.5287   -2.2512   17.8877 Cl  0  0  0  0  0  0  0  0  0  0  0  0
    1.7319   -2.7727   28.8109 C   0  0  0  0  0  0  0  0  0  0  0  0
    1.8998   -1.3879   28.6281 C   0  0  0  0  0  0  0  0  0  0  0  0
    2.8250   -0.6534   29.3875 C   0  0  0  0  0  0  0  0  0  0  0  0
    3.6441   -1.2829   30.3296 C   0  0  0  0  0  0  0  0  0  0  0  0
    4.5737   -0.4965   31.2138 C   0  0  0  0  0  0  0  0  0  0  0  0
    4.0830   -0.4736   32.5485 O   0  0  0  0  0  0  0  0  0  0  0  0
    3.5700   -2.6706   30.4475 C   0  0  0  0  0  0  0  0  0  0  0  0
    2.6491   -3.4023   29.6823 C   0  0  0  0  0  0  0  0  0  0  0  0
    0.2431   -5.0855   29.3996 C   0  0  0  0  0  0  0  0  0  0  0  0
    1.2043   -7.6869   32.7318 H   0  0  0  0  0  0  0  0  0  0  0  0
   -0.1429   -7.4759   33.5055 H   0  0  0  0  0  0  0  0  0  0  0  0
   -0.3345  -11.3112   35.2266 H   0  0  0  0  0  0  0  0  0  0  0  0
   -1.1423   -9.5753   30.6403 H   0  0  0  0  0  0  0  0  0  0  0  0
   -0.5338   -3.4334   31.9820 H   0  0  0  0  0  0  0  0  0  0  0  0
    0.7504   -2.9982   31.0461 H   0  0  0  0  0  0  0  0  0  0  0  0
   -2.0484   -3.7414   30.1362 H   0  0  0  0  0  0  0  0  0  0  0  0
   -1.6032   -2.1553   30.6228 H   0  0  0  0  0  0  0  0  0  0  0  0
   -0.5706   -1.6170   28.7430 H   0  0  0  0  0  0  0  0  0  0  0  0
   -1.6256   -2.7926   28.1158 H   0  0  0  0  0  0  0  0  0  0  0  0
   -0.7871   -3.0940   26.3481 H   0  0  0  0  0  0  0  0  0  0  0  0
   -0.1229   -3.8898   24.5937 H   0  0  0  0  0  0  0  0  0  0  0  0
    1.6872   -4.7875   26.7960 H   0  0  0  0  0  0  0  0  0  0  0  0
    2.5622   -5.2996   25.4640 H   0  0  0  0  0  0  0  0  0  0  0  0
    5.9567   -1.7117   27.0755 H   0  0  0  0  0  0  0  0  0  0  0  0
    4.6585   -0.8123   24.9909 H   0  0  0  0  0  0  0  0  0  0  0  0
    3.3907   -2.2184   23.3867 H   0  0  0  0  0  0  0  0  0  0  0  0
    2.8694   -3.6830   23.3770 H   0  0  0  0  0  0  0  0  0  0  0  0
    1.7889   -1.0043   19.7746 H   0  0  0  0  0  0  0  0  0  0  0  0
    1.2268   -0.9016   17.3768 H   0  0  0  0  0  0  0  0  0  0  0  0
    1.2850   -0.8490   27.9076 H   0  0  0  0  0  0  0  0  0  0  0  0
    2.8864    0.4223   29.2331 H   0  0  0  0  0  0  0  0  0  0  0  0
    5.5751   -0.9394   31.2113 H   0  0  0  0  0  0  0  0  0  0  0  0
    4.6675    0.5376   30.8665 H   0  0  0  0  0  0  0  0  0  0  0  0
    3.1230   -0.6212   32.5049 H   0  0  0  0  0  0  0  0  0  0  0  0
    4.2208   -3.1933   31.1456 H   0  0  0  0  0  0  0  0  0  0  0  0
    2.6433   -4.4740   29.8321 H   0  0  0  0  0  0  0  0  0  0  0  0
    1.0595   -5.7684   29.1539 H   0  0  0  0  0  0  0  0  0  0  0  0
   -0.6948   -5.5690   29.1282 H   0  0  0  0  0  0  0  0  0  0  0  0
  1  2  2  0
  2  3  1  0
  3  4  1  0
  4  5  1  0
  5  6  2  0
  6  7  1  0
  7  8  2  0
  2  9  1  0
  9 10  1  0
 10 11  1  0
 11 12  1  0
 12 13  1  0
 13 14  1  0
 14 15  1  0
 15 16  1  0
 16 17  1  0
 17 18  1  0
 18 19  1  0
 19 20  2  0
 20 21  1  0
 21 22  1  0
 22 23  1  0
 23 24  1  0
 24 25  2  0
 24 26  1  0
 26 27  1  0
 26 28  1  0
 13 29  1  0
 29 30  2  0
 30 31  1  0
 31 32  2  0
 32 33  1  0
 33 34  1  0
 32 35  1  0
 35 36  2  0
 13 37  1  0
  8  4  1  0
 37  9  1  0
 23 15  1  0
 36 29  1  0
 21 17  2  0
  3 38  1  0
  3 39  1  0
  5 40  1  0
  8 41  1  0
 10 42  1  0
 10 43  1  0
 11 44  1  0
 11 45  1  0
 12 46  1  0
 12 47  1  0
 14 48  1  0
 15 49  1  0
 16 50  1  0
 16 51  1  0
 19 52  1  0
 20 53  1  0
 22 54  1  0
 22 55  1  0
 26 56  1  0
 27 57  1  0
 30 58  1  0
 31 59  1  0
 33 60  1  0
 33 61  1  0
 34 62  1  0
 35 63  1  0
 36 64  1  0
 37 65  1  0
 37 66  1  0
M  END
>  <Energy>  (481) 
1638.731361523156

>  <compound_id>  (481) 
2640

>  <target_id>  (481) 
1

>  <reference_id>  (481) 
177

>  <inspiration_ids>  (481) 
[177, 128]

>  <energy_score>  (481) 
1472.9429424035447

>  <distance_score>  (481) 
5.052520677618725

>  <path>  (481) 
/opt/xchem-fragalysis-2/maxwin/BulkDock/SCRATCH/505736/C2640-P177/C2640-P177.minimised.mol

>  <scratch_subdir>  (481) 
/opt/xchem-fragalysis-2/maxwin/BulkDock/SCRATCH/505736/C2640-P177

>  <fragmenstein_runtime>  (481) 
30.537860870361328

>  <fragmenstein_outcome>  (481) 
too moved

>  <fragmenstein_mode>  (481) 
expansion

>  <fragmenstein_error>  (481) 


$$$$
C2640-P128
     RDKit          3D

 66 70  0  0  0  0  0  0  0  0999 V2000
    1.3908   -7.4811   33.5116 O   0  0  0  0  0  0  0  0  0  0  0  0
    0.3405   -7.3795   32.9232 C   0  0  0  0  0  0  0  0  0  0  0  0
   -0.8594   -8.1188   33.5092 C   0  0  0  0  0  0  0  0  0  0  0  0
   -0.6019   -9.6042   33.2299 N   0  0  0  0  0  0  0  0  0  0  0  0
    0.0888  -10.9460   34.6203 C   0  0  0  0  0  0  0  0  0  0  0  0
    0.4401  -12.5685   33.6384 N   0  0  0  0  0  0  0  0  0  0  0  0
    0.6165  -11.9160   31.6776 N   0  0  0  0  0  0  0  0  0  0  0  0
   -0.4944  -10.4229   31.5276 C   0  0  0  0  0  0  0  0  0  0  0  0
    0.0299   -6.7484   31.6725 N   0  0  0  0  0  0  0  0  0  0  0  0
    0.8764   -6.1475   30.6963 C   0  0  0  0  0  0  0  0  0  0  0  0
    2.1862   -5.5936   31.2097 C   0  0  0  0  0  0  0  0  0  0  0  0
    2.0137   -4.2432   31.7919 C   0  0  0  0  0  0  0  0  0  0  0  0
    0.6046   -3.7725   31.4728 C   0  0  0  0  0  0  0  0  0  0  0  0
    0.4027   -3.4576   30.0429 N   0  0  0  0  0  0  0  0  0  0  0  0
    1.2296   -2.8368   28.9698 C   0  0  0  0  0  0  0  0  0  0  0  0
    2.5417   -1.9766   29.1231 C   0  0  0  0  0  0  0  0  0  0  0  0
    3.5914   -2.5965   28.2985 C   0  0  0  0  0  0  0  0  0  0  0  0
    5.1159   -1.9730   27.9526 S   0  0  0  0  0  0  0  0  0  0  0  0
    5.4556   -3.2984   26.9124 C   0  0  0  0  0  0  0  0  0  0  0  0
    4.4075   -4.1982   26.8618 C   0  0  0  0  0  0  0  0  0  0  0  0
    3.3236   -3.7813   27.6837 C   0  0  0  0  0  0  0  0  0  0  0  0
    2.0026   -4.4117   27.9608 C   0  0  0  0  0  0  0  0  0  0  0  0
    0.8211   -3.5345   27.6145 N   0  0  0  0  0  0  0  0  0  0  0  0
   -0.3515   -4.3692   27.2686 C   0  0  0  0  0  0  0  0  0  0  0  0
   -1.2111   -4.7701   28.0104 O   0  0  0  0  0  0  0  0  0  0  0  0
   -0.5456   -5.1118   25.3395 C   0  0  0  0  0  0  0  0  0  0  0  0
   -1.9221   -5.2196   24.3375 S   0  0  0  0  0  0  0  0  0  0  0  0
    0.5812   -4.7233   23.5087 Cl  0  0  0  0  0  0  0  0  0  0  0  0
    0.3274   -2.5395   32.3445 C   0  0  0  0  0  0  0  0  0  0  0  0
   -0.9299   -2.2805   32.8951 C   0  0  0  0  0  0  0  0  0  0  0  0
   -1.1123   -1.2180   33.7930 C   0  0  0  0  0  0  0  0  0  0  0  0
   -0.0477   -0.3836   34.1563 C   0  0  0  0  0  0  0  0  0  0  0  0
   -0.2260    0.7473   35.1281 C   0  0  0  0  0  0  0  0  0  0  0  0
   -0.4601    1.9683   34.4392 O   0  0  0  0  0  0  0  0  0  0  0  0
    1.1919   -0.5868   33.5646 C   0  0  0  0  0  0  0  0  0  0  0  0
    1.3684   -1.6392   32.6718 C   0  0  0  0  0  0  0  0  0  0  0  0
   -0.3980   -5.1670   31.9133 C   0  0  0  0  0  0  0  0  0  0  0  0
   -1.7978   -7.9000   32.9994 H   0  0  0  0  0  0  0  0  0  0  0  0
   -0.9258   -8.0041   34.5920 H   0  0  0  0  0  0  0  0  0  0  0  0
   -0.3392  -10.9252   35.6944 H   0  0  0  0  0  0  0  0  0  0  0  0
   -0.6874   -9.7716   30.6813 H   0  0  0  0  0  0  0  0  0  0  0  0
    0.3092   -5.6739   29.8933 H   0  0  0  0  0  0  0  0  0  0  0  0
    1.1617   -7.0332   30.1191 H   0  0  0  0  0  0  0  0  0  0  0  0
    2.5843   -6.2128   32.0065 H   0  0  0  0  0  0  0  0  0  0  0  0
    2.9381   -5.5589   30.4192 H   0  0  0  0  0  0  0  0  0  0  0  0
    2.8128   -3.5976   31.4219 H   0  0  0  0  0  0  0  0  0  0  0  0
    2.1608   -4.3078   32.8801 H   0  0  0  0  0  0  0  0  0  0  0  0
   -0.5868   -3.3966   29.7874 H   0  0  0  0  0  0  0  0  0  0  0  0
    0.5590   -1.9694   28.8347 H   0  0  0  0  0  0  0  0  0  0  0  0
    2.3550   -0.9555   28.7645 H   0  0  0  0  0  0  0  0  0  0  0  0
    2.8548   -1.8935   30.1616 H   0  0  0  0  0  0  0  0  0  0  0  0
    6.4034   -3.3534   26.3901 H   0  0  0  0  0  0  0  0  0  0  0  0
    4.4405   -5.0975   26.2581 H   0  0  0  0  0  0  0  0  0  0  0  0
    1.9431   -4.9608   28.8796 H   0  0  0  0  0  0  0  0  0  0  0  0
    1.9903   -5.2244   27.2265 H   0  0  0  0  0  0  0  0  0  0  0  0
    0.4694   -5.5334   25.2405 H   0  0  0  0  0  0  0  0  0  0  0  0
   -2.1521   -6.5503   24.3426 H   0  0  0  0  0  0  0  0  0  0  0  0
   -1.7881   -2.9076   32.6708 H   0  0  0  0  0  0  0  0  0  0  0  0
   -2.0999   -1.0602   34.2250 H   0  0  0  0  0  0  0  0  0  0  0  0
   -1.0759    0.5581   35.7925 H   0  0  0  0  0  0  0  0  0  0  0  0
    0.6607    0.8645   35.7602 H   0  0  0  0  0  0  0  0  0  0  0  0
   -0.5878    1.7596   33.4980 H   0  0  0  0  0  0  0  0  0  0  0  0
    2.0312    0.0643   33.8020 H   0  0  0  0  0  0  0  0  0  0  0  0
    2.3700   -1.7501   32.2694 H   0  0  0  0  0  0  0  0  0  0  0  0
   -1.3688   -5.0426   31.4259 H   0  0  0  0  0  0  0  0  0  0  0  0
   -0.5727   -5.0905   32.9954 H   0  0  0  0  0  0  0  0  0  0  0  0
  1  2  2  0
  2  3  1  0
  3  4  1  0
  4  5  1  0
  5  6  2  0
  6  7  1  0
  7  8  2  0
  2  9  1  0
  9 10  1  0
 10 11  1  0
 11 12  1  0
 12 13  1  0
 13 14  1  0
 14 15  1  0
 15 16  1  0
 16 17  1  0
 17 18  1  0
 18 19  1  0
 19 20  2  0
 20 21  1  0
 21 22  1  0
 22 23  1  0
 23 24  1  0
 24 25  2  0
 24 26  1  0
 26 27  1  0
 26 28  1  0
 13 29  1  0
 29 30  2  0
 30 31  1  0
 31 32  2  0
 32 33  1  0
 33 34  1  0
 32 35  1  0
 35 36  2  0
 13 37  1  0
  8  4  1  0
 37  9  1  0
 23 15  1  0
 36 29  1  0
 21 17  2  0
  3 38  1  0
  3 39  1  0
  5 40  1  0
  8 41  1  0
 10 42  1  0
 10 43  1  0
 11 44  1  0
 11 45  1  0
 12 46  1  0
 12 47  1  0
 14 48  1  0
 15 49  1  0
 16 50  1  0
 16 51  1  0
 19 52  1  0
 20 53  1  0
 22 54  1  0
 22 55  1  0
 26 56  1  0
 27 57  1  0
 30 58  1  0
 31 59  1  0
 33 60  1  0
 33 61  1  0
 34 62  1  0
 35 63  1  0
 36 64  1  0
 37 65  1  0
 37 66  1  0
M  END
>  <Energy>  (482) 
1051.765813245808

>  <compound_id>  (482) 
2640

>  <target_id>  (482) 
1

>  <reference_id>  (482) 
128

>  <inspiration_ids>  (482) 
[177, 128]

>  <energy_score>  (482) 
885.9773941261903

>  <distance_score>  (482) 
4.957224128683581

>  <path>  (482) 
/opt/xchem-fragalysis-2/maxwin/BulkDock/SCRATCH/505736/C2640-P128/C2640-P128.minimised.mol

>  <scratch_subdir>  (482) 
/opt/xchem-fragalysis-2/maxwin/BulkDock/SCRATCH/505736/C2640-P128

>  <fragmenstein_runtime>  (482) 
21.728923559188843

>  <fragmenstein_outcome>  (482) 
too moved

>  <fragmenstein_mode>  (482) 
expansion

>  <fragmenstein_error>  (482) 


$$$$
C2641-P177
     RDKit          3D

 60 65  0  0  0  0  0  0  0  0999 V2000
    1.2643    2.5297   21.7498 O   0  0  0  0  0  0  0  0  0  0  0  0
    2.4542    2.7219   21.8683 C   0  0  0  0  0  0  0  0  0  0  0  0
    2.9720    3.6676   20.6844 C   0  0  0  0  0  0  0  0  0  0  0  0
    1.5697    4.7250   19.9590 S   0  0  0  0  0  0  0  0  0  0  0  0
    3.3146    2.6980   19.1977 Cl  0  0  0  0  0  0  0  0  0  0  0  0
    3.5079    2.2627   23.0781 N   0  0  0  0  0  0  0  0  0  0  0  0
    4.3253    0.4854   22.6265 C   0  0  0  0  0  0  0  0  0  0  0  0
    4.7541   -0.8497   24.0801 C   0  0  0  0  0  0  0  0  0  0  0  0
    5.0284   -2.2268   23.9859 C   0  0  0  0  0  0  0  0  0  0  0  0
    5.1369   -2.9752   25.1458 C   0  0  0  0  0  0  0  0  0  0  0  0
    4.4761   -2.1134   26.4169 S   0  0  0  0  0  0  0  0  0  0  0  0
    4.2342   -0.8240   25.3524 C   0  0  0  0  0  0  0  0  0  0  0  0
    3.4930    0.3001   25.7624 C   0  0  0  0  0  0  0  0  0  0  0  0
    3.1451    1.4540   24.6821 C   0  0  0  0  0  0  0  0  0  0  0  0
    3.4642    2.7095   25.8811 N   0  0  0  0  0  0  0  0  0  0  0  0
    3.2616    2.4040   27.3727 C   0  0  0  0  0  0  0  0  0  0  0  0
    4.4007    1.9900   28.3018 C   0  0  0  0  0  0  0  0  0  0  0  0
    4.1774    1.2502   29.4431 C   0  0  0  0  0  0  0  0  0  0  0  0
    5.3758    0.7408   30.1052 N   0  0  0  0  0  0  0  0  0  0  0  0
    6.2280   -0.2299   29.3563 C   0  0  0  0  0  0  0  0  0  0  0  0
    6.8768   -1.2070   30.3485 C   0  0  0  0  0  0  0  0  0  0  0  0
    6.0250   -1.2867   31.6236 C   0  0  0  0  0  0  0  0  0  0  0  0
    4.8372   -2.2279   31.6619 C   0  0  0  0  0  0  0  0  0  0  0  0
    4.2762   -2.8061   30.5156 C   0  0  0  0  0  0  0  0  0  0  0  0
    3.1189   -3.5862   30.5964 C   0  0  0  0  0  0  0  0  0  0  0  0
    2.5241   -3.8382   31.8281 C   0  0  0  0  0  0  0  0  0  0  0  0
    3.0928   -3.3182   32.9847 C   0  0  0  0  0  0  0  0  0  0  0  0
    4.2400   -2.5249   32.9032 C   0  0  0  0  0  0  0  0  0  0  0  0
    5.4983    0.4359   31.8085 S   0  0  0  0  0  0  0  0  0  0  0  0
    4.2421    0.5593   32.5032 O   0  0  0  0  0  0  0  0  0  0  0  0
    6.6566    1.1557   32.2998 O   0  0  0  0  0  0  0  0  0  0  0  0
    2.8464    0.9387   29.7826 N   0  0  0  0  0  0  0  0  0  0  0  0
    2.2405    0.0751   30.6598 C   0  0  0  0  0  0  0  0  0  0  0  0
    0.9314    0.1222   30.5685 N   0  0  0  0  0  0  0  0  0  0  0  0
    0.6380    1.0111   29.5771 N   0  0  0  0  0  0  0  0  0  0  0  0
    1.7771    1.4638   29.0897 C   0  0  0  0  0  0  0  0  0  0  0  0
    2.0376    2.2372   27.9293 C   0  0  0  0  0  0  0  0  0  0  0  0
    3.7495    4.3815   20.9689 H   0  0  0  0  0  0  0  0  0  0  0  0
    0.6499    3.7557   20.0869 H   0  0  0  0  0  0  0  0  0  0  0  0
    5.2691    0.4268   22.0477 H   0  0  0  0  0  0  0  0  0  0  0  0
    3.6778    0.3089   21.7898 H   0  0  0  0  0  0  0  0  0  0  0  0
    5.2635   -2.5581   23.0079 H   0  0  0  0  0  0  0  0  0  0  0  0
    5.4878   -3.9911   25.2720 H   0  0  0  0  0  0  0  0  0  0  0  0
    2.6422    0.0447   26.4008 H   0  0  0  0  0  0  0  0  0  0  0  0
    4.2379    0.6564   26.4692 H   0  0  0  0  0  0  0  0  0  0  0  0
    2.1214    1.5885   24.5921 H   0  0  0  0  0  0  0  0  0  0  0  0
    4.4312    2.9897   25.7404 H   0  0  0  0  0  0  0  0  0  0  0  0
    5.4025    2.2452   27.9730 H   0  0  0  0  0  0  0  0  0  0  0  0
    5.6126   -0.7860   28.6509 H   0  0  0  0  0  0  0  0  0  0  0  0
    6.9970    0.3064   28.7910 H   0  0  0  0  0  0  0  0  0  0  0  0
    7.8617   -0.8004   30.6164 H   0  0  0  0  0  0  0  0  0  0  0  0
    7.0632   -2.1852   29.8931 H   0  0  0  0  0  0  0  0  0  0  0  0
    6.6805   -1.5222   32.4709 H   0  0  0  0  0  0  0  0  0  0  0  0
    4.6997   -2.6500   29.5291 H   0  0  0  0  0  0  0  0  0  0  0  0
    2.6755   -3.9892   29.6879 H   0  0  0  0  0  0  0  0  0  0  0  0
    1.6139   -4.4288   31.8845 H   0  0  0  0  0  0  0  0  0  0  0  0
    2.6287   -3.5016   33.9509 H   0  0  0  0  0  0  0  0  0  0  0  0
    4.6403   -2.0999   33.8237 H   0  0  0  0  0  0  0  0  0  0  0  0
    2.7526   -0.5848   31.3294 H   0  0  0  0  0  0  0  0  0  0  0  0
    1.1450    2.5247   27.4412 H   0  0  0  0  0  0  0  0  0  0  0  0
  1  2  2  0
  2  3  1  0
  3  4  1  0
  3  5  1  0
  2  6  1  0
  6  7  1  0
  7  8  1  0
  8  9  1  0
  9 10  2  0
 10 11  1  0
 11 12  1  0
 12 13  1  0
 13 14  1  0
 14 15  1  0
 15 16  1  0
 16 17  1  0
 17 18  2  0
 18 19  1  0
 19 20  1  0
 20 21  1  0
 21 22  1  0
 22 23  1  0
 23 24  2  0
 24 25  1  0
 25 26  2  0
 26 27  1  0
 27 28  2  0
 22 29  1  0
 29 30  2  0
 29 31  2  0
 18 32  1  0
 32 33  1  0
 33 34  2  0
 34 35  1  0
 35 36  2  0
 36 37  1  0
 14  6  1  0
 37 16  2  0
 12  8  2  0
 29 19  1  0
 36 32  1  0
 28 23  1  0
  3 38  1  0
  4 39  1  0
  7 40  1  0
  7 41  1  0
  9 42  1  0
 10 43  1  0
 13 44  1  0
 13 45  1  0
 14 46  1  0
 15 47  1  0
 17 48  1  0
 20 49  1  0
 20 50  1  0
 21 51  1  0
 21 52  1  0
 22 53  1  0
 24 54  1  0
 25 55  1  0
 26 56  1  0
 27 57  1  0
 28 58  1  0
 33 59  1  0
 37 60  1  0
M  END
>  <Energy>  (483) 
466.88323581049565

>  <compound_id>  (483) 
2641

>  <target_id>  (483) 
1

>  <reference_id>  (483) 
177

>  <inspiration_ids>  (483) 
[177, 129]

>  <energy_score>  (483) 
288.41620623933943

>  <distance_score>  (483) 
7.533081697182182

>  <path>  (483) 
/opt/xchem-fragalysis-2/maxwin/BulkDock/SCRATCH/505736/C2641-P177/C2641-P177.minimised.mol

>  <scratch_subdir>  (483) 
/opt/xchem-fragalysis-2/maxwin/BulkDock/SCRATCH/505736/C2641-P177

>  <fragmenstein_runtime>  (483) 
23.38748073577881

>  <fragmenstein_outcome>  (483) 
too moved

>  <fragmenstein_mode>  (483) 
expansion

>  <fragmenstein_error>  (483) 


$$$$
C2641-P129
     RDKit          3D

 60 65  0  0  0  0  0  0  0  0999 V2000
    3.2099   -6.2351   27.6730 O   0  0  0  0  0  0  0  0  0  0  0  0
    2.4817   -5.3647   27.2565 C   0  0  0  0  0  0  0  0  0  0  0  0
    2.4311   -5.3952   25.6395 C   0  0  0  0  0  0  0  0  0  0  0  0
    0.7116   -5.1604   24.0305 S   0  0  0  0  0  0  0  0  0  0  0  0
    3.4620   -7.1612   25.3315 Cl  0  0  0  0  0  0  0  0  0  0  0  0
    1.8049   -4.3390   27.9436 N   0  0  0  0  0  0  0  0  0  0  0  0
    2.6704   -3.0848   28.0061 C   0  0  0  0  0  0  0  0  0  0  0  0
    4.0576   -3.3279   28.4580 C   0  0  0  0  0  0  0  0  0  0  0  0
    5.3092   -3.1881   27.8067 C   0  0  0  0  0  0  0  0  0  0  0  0
    6.3334   -3.6454   28.6131 C   0  0  0  0  0  0  0  0  0  0  0  0
    5.7569   -4.2233   30.1295 S   0  0  0  0  0  0  0  0  0  0  0  0
    4.1756   -3.8426   29.7094 C   0  0  0  0  0  0  0  0  0  0  0  0
    2.9289   -4.0502   30.4721 C   0  0  0  0  0  0  0  0  0  0  0  0
    1.6779   -4.0613   29.4383 C   0  0  0  0  0  0  0  0  0  0  0  0
    0.4521   -3.4304   29.9709 N   0  0  0  0  0  0  0  0  0  0  0  0
    0.0070   -3.9317   31.2179 C   0  0  0  0  0  0  0  0  0  0  0  0
    0.2153   -3.1121   32.4277 C   0  0  0  0  0  0  0  0  0  0  0  0
    0.1364   -3.6885   33.6480 C   0  0  0  0  0  0  0  0  0  0  0  0
    0.5723   -2.9556   34.8007 N   0  0  0  0  0  0  0  0  0  0  0  0
    0.2389   -1.5316   35.0401 C   0  0  0  0  0  0  0  0  0  0  0  0
    1.4362   -0.8769   35.7417 C   0  0  0  0  0  0  0  0  0  0  0  0
    2.7199   -1.5635   35.2517 C   0  0  0  0  0  0  0  0  0  0  0  0
    3.2676   -1.1635   33.8948 C   0  0  0  0  0  0  0  0  0  0  0  0
    2.6307   -0.2535   33.0351 C   0  0  0  0  0  0  0  0  0  0  0  0
    3.1770    0.0721   31.7905 C   0  0  0  0  0  0  0  0  0  0  0  0
    4.3903   -0.4775   31.3983 C   0  0  0  0  0  0  0  0  0  0  0  0
    5.0621   -1.3408   32.2560 C   0  0  0  0  0  0  0  0  0  0  0  0
    4.5071   -1.6842   33.4880 C   0  0  0  0  0  0  0  0  0  0  0  0
    2.2160   -3.3049   35.2512 S   0  0  0  0  0  0  0  0  0  0  0  0
    2.8507   -4.0901   34.2147 O   0  0  0  0  0  0  0  0  0  0  0  0
    2.1955   -3.7676   36.6231 O   0  0  0  0  0  0  0  0  0  0  0  0
   -0.2560   -5.0231   33.7458 N   0  0  0  0  0  0  0  0  0  0  0  0
   -0.4446   -5.8471   34.8203 C   0  0  0  0  0  0  0  0  0  0  0  0
   -0.8433   -7.0323   34.4126 N   0  0  0  0  0  0  0  0  0  0  0  0
   -0.9074   -7.0064   33.0367 N   0  0  0  0  0  0  0  0  0  0  0  0
   -0.5570   -5.8012   32.6463 C   0  0  0  0  0  0  0  0  0  0  0  0
   -0.3854   -5.2217   31.3645 C   0  0  0  0  0  0  0  0  0  0  0  0
    3.1645   -4.6229   25.3606 H   0  0  0  0  0  0  0  0  0  0  0  0
    1.2264   -4.1495   23.2864 H   0  0  0  0  0  0  0  0  0  0  0  0
    2.7898   -2.7944   26.9592 H   0  0  0  0  0  0  0  0  0  0  0  0
    2.1851   -2.1954   28.4417 H   0  0  0  0  0  0  0  0  0  0  0  0
    5.4708   -2.8136   26.8022 H   0  0  0  0  0  0  0  0  0  0  0  0
    7.3897   -3.6915   28.3820 H   0  0  0  0  0  0  0  0  0  0  0  0
    2.8025   -3.2353   31.1915 H   0  0  0  0  0  0  0  0  0  0  0  0
    2.9507   -4.9859   31.0392 H   0  0  0  0  0  0  0  0  0  0  0  0
    1.4284   -5.1199   29.6201 H   0  0  0  0  0  0  0  0  0  0  0  0
    0.5542   -2.4188   29.9956 H   0  0  0  0  0  0  0  0  0  0  0  0
    0.5552   -2.0968   32.2796 H   0  0  0  0  0  0  0  0  0  0  0  0
   -0.6454   -1.4740   35.6838 H   0  0  0  0  0  0  0  0  0  0  0  0
    0.0003   -1.0034   34.1149 H   0  0  0  0  0  0  0  0  0  0  0  0
    1.4450    0.2095   35.6090 H   0  0  0  0  0  0  0  0  0  0  0  0
    1.3352   -1.0554   36.8211 H   0  0  0  0  0  0  0  0  0  0  0  0
    3.5073   -1.4429   36.0046 H   0  0  0  0  0  0  0  0  0  0  0  0
    1.7025    0.2393   33.3078 H   0  0  0  0  0  0  0  0  0  0  0  0
    2.6672    0.7774   31.1386 H   0  0  0  0  0  0  0  0  0  0  0  0
    4.8301   -0.2182   30.4385 H   0  0  0  0  0  0  0  0  0  0  0  0
    6.0278   -1.7493   31.9671 H   0  0  0  0  0  0  0  0  0  0  0  0
    5.0606   -2.3725   34.1266 H   0  0  0  0  0  0  0  0  0  0  0  0
   -0.2912   -5.5383   35.8446 H   0  0  0  0  0  0  0  0  0  0  0  0
   -0.4830   -5.8807   30.5087 H   0  0  0  0  0  0  0  0  0  0  0  0
  1  2  2  0
  2  3  1  0
  3  4  1  0
  3  5  1  0
  2  6  1  0
  6  7  1  0
  7  8  1  0
  8  9  1  0
  9 10  2  0
 10 11  1  0
 11 12  1  0
 12 13  1  0
 13 14  1  0
 14 15  1  0
 15 16  1  0
 16 17  1  0
 17 18  2  0
 18 19  1  0
 19 20  1  0
 20 21  1  0
 21 22  1  0
 22 23  1  0
 23 24  2  0
 24 25  1  0
 25 26  2  0
 26 27  1  0
 27 28  2  0
 22 29  1  0
 29 30  2  0
 29 31  2  0
 18 32  1  0
 32 33  1  0
 33 34  2  0
 34 35  1  0
 35 36  2  0
 36 37  1  0
 14  6  1  0
 37 16  2  0
 12  8  2  0
 29 19  1  0
 36 32  1  0
 28 23  1  0
  3 38  1  0
  4 39  1  0
  7 40  1  0
  7 41  1  0
  9 42  1  0
 10 43  1  0
 13 44  1  0
 13 45  1  0
 14 46  1  0
 15 47  1  0
 17 48  1  0
 20 49  1  0
 20 50  1  0
 21 51  1  0
 21 52  1  0
 22 53  1  0
 24 54  1  0
 25 55  1  0
 26 56  1  0
 27 57  1  0
 28 58  1  0
 33 59  1  0
 37 60  1  0
M  END
>  <Energy>  (484) 
267.10231312518243

>  <compound_id>  (484) 
2641

>  <target_id>  (484) 
1

>  <reference_id>  (484) 
129

>  <inspiration_ids>  (484) 
[177, 129]

>  <energy_score>  (484) 
88.63528355403616

>  <distance_score>  (484) 
5.098349885310813

>  <path>  (484) 
/opt/xchem-fragalysis-2/maxwin/BulkDock/SCRATCH/505736/C2641-P129/C2641-P129.minimised.mol

>  <scratch_subdir>  (484) 
/opt/xchem-fragalysis-2/maxwin/BulkDock/SCRATCH/505736/C2641-P129

>  <fragmenstein_runtime>  (484) 
22.34077262878418

>  <fragmenstein_outcome>  (484) 
too moved

>  <fragmenstein_mode>  (484) 
expansion

>  <fragmenstein_error>  (484) 


$$$$
C2644-P177
     RDKit          3D

 52 57  0  0  0  0  0  0  0  0999 V2000
   -0.3546   -2.1422   22.6575 O   0  0  0  0  0  0  0  0  0  0  0  0
    0.5389   -2.9416   22.6686 C   0  0  0  0  0  0  0  0  0  0  0  0
    1.0407   -3.4268   20.8027 C   0  0  0  0  0  0  0  0  0  0  0  0
    0.9376   -2.2921   18.5228 S   0  0  0  0  0  0  0  0  0  0  0  0
    1.3095   -1.3496   19.5323 Cl  0  0  0  0  0  0  0  0  0  0  0  0
    1.2592   -3.5101   24.0964 N   0  0  0  0  0  0  0  0  0  0  0  0
    2.4015   -2.6761   24.4600 C   0  0  0  0  0  0  0  0  0  0  0  0
    3.3279   -2.6901   25.6377 C   0  0  0  0  0  0  0  0  0  0  0  0
    4.7297   -2.8785   25.7643 C   0  0  0  0  0  0  0  0  0  0  0  0
    5.2136   -2.3871   26.9642 C   0  0  0  0  0  0  0  0  0  0  0  0
    3.9759   -1.6530   27.9028 S   0  0  0  0  0  0  0  0  0  0  0  0
    2.8241   -2.1396   26.7772 C   0  0  0  0  0  0  0  0  0  0  0  0
    1.3637   -2.0624   26.8408 C   0  0  0  0  0  0  0  0  0  0  0  0
    0.8365   -3.2177   25.8387 C   0  0  0  0  0  0  0  0  0  0  0  0
    0.4202   -4.4117   26.7423 N   0  0  0  0  0  0  0  0  0  0  0  0
    0.8206   -4.8122   28.0673 C   0  0  0  0  0  0  0  0  0  0  0  0
    1.9503   -4.4503   28.7178 C   0  0  0  0  0  0  0  0  0  0  0  0
    2.0114   -4.3229   30.1779 C   0  0  0  0  0  0  0  0  0  0  0  0
    1.0861   -4.9366   30.9357 C   0  0  0  0  0  0  0  0  0  0  0  0
    0.8871   -4.5728   32.6192 S   0  0  0  0  0  0  0  0  0  0  0  0
    2.0532   -5.6469   33.3110 C   0  0  0  0  0  0  0  0  0  0  0  0
    1.9013   -6.9506   33.3983 N   0  0  0  0  0  0  0  0  0  0  0  0
    3.0057   -7.4348   34.0689 N   0  0  0  0  0  0  0  0  0  0  0  0
    3.7469   -6.3871   34.3834 C   0  0  0  0  0  0  0  0  0  0  0  0
    4.9795   -6.4605   35.0926 C   0  0  0  0  0  0  0  0  0  0  0  0
    5.6383   -7.5551   35.6185 C   0  0  0  0  0  0  0  0  0  0  0  0
    6.8308   -7.0886   36.2238 C   0  0  0  0  0  0  0  0  0  0  0  0
    6.8679   -5.7230   36.0552 C   0  0  0  0  0  0  0  0  0  0  0  0
    5.7388   -5.3498   35.3729 N   0  0  0  0  0  0  0  0  0  0  0  0
    3.2038   -5.2162   33.9135 O   0  0  0  0  0  0  0  0  0  0  0  0
    0.1800   -5.7527   30.2568 N   0  0  0  0  0  0  0  0  0  0  0  0
   -0.6219   -6.7667   30.7097 C   0  0  0  0  0  0  0  0  0  0  0  0
   -1.1905   -7.3728   29.6940 N   0  0  0  0  0  0  0  0  0  0  0  0
   -0.8200   -6.7058   28.5369 N   0  0  0  0  0  0  0  0  0  0  0  0
    0.0153   -5.7372   28.8644 C   0  0  0  0  0  0  0  0  0  0  0  0
    0.4628   -4.2781   20.4020 H   0  0  0  0  0  0  0  0  0  0  0  0
   -0.3805   -2.1096   18.5185 H   0  0  0  0  0  0  0  0  0  0  0  0
    3.0746   -2.8096   23.6341 H   0  0  0  0  0  0  0  0  0  0  0  0
    1.9882   -1.7053   24.4737 H   0  0  0  0  0  0  0  0  0  0  0  0
    5.3932   -3.2605   25.0043 H   0  0  0  0  0  0  0  0  0  0  0  0
    6.2421   -2.3654   27.2985 H   0  0  0  0  0  0  0  0  0  0  0  0
    0.9865   -2.2138   27.8566 H   0  0  0  0  0  0  0  0  0  0  0  0
    0.9772   -1.0836   26.5996 H   0  0  0  0  0  0  0  0  0  0  0  0
   -0.1611   -2.8176   25.5950 H   0  0  0  0  0  0  0  0  0  0  0  0
   -0.6162   -4.4255   26.7890 H   0  0  0  0  0  0  0  0  0  0  0  0
    2.7854   -4.0308   28.1930 H   0  0  0  0  0  0  0  0  0  0  0  0
    2.7447   -3.6296   30.5815 H   0  0  0  0  0  0  0  0  0  0  0  0
    5.2968   -8.5820   35.5776 H   0  0  0  0  0  0  0  0  0  0  0  0
    7.5790   -7.6836   36.7329 H   0  0  0  0  0  0  0  0  0  0  0  0
    7.5962   -4.9857   36.3678 H   0  0  0  0  0  0  0  0  0  0  0  0
    5.5004   -4.3995   35.1177 H   0  0  0  0  0  0  0  0  0  0  0  0
   -0.7147   -7.0486   31.7489 H   0  0  0  0  0  0  0  0  0  0  0  0
  1  2  2  0
  2  3  1  0
  3  4  1  0
  3  5  1  0
  2  6  1  0
  6  7  1  0
  7  8  1  0
  8  9  1  0
  9 10  2  0
 10 11  1  0
 11 12  1  0
 12 13  1  0
 13 14  1  0
 14 15  1  0
 15 16  1  0
 16 17  2  0
 17 18  1  0
 18 19  2  0
 19 20  1  0
 20 21  1  0
 21 22  2  0
 22 23  1  0
 23 24  2  0
 24 25  1  0
 25 26  2  0
 26 27  1  0
 27 28  2  0
 28 29  1  0
 24 30  1  0
 19 31  1  0
 31 32  1  0
 32 33  2  0
 33 34  1  0
 34 35  2  0
 14  6  1  0
 35 16  1  0
 12  8  2  0
 30 21  1  0
 35 31  1  0
 29 25  1  0
  3 36  1  0
  4 37  1  0
  7 38  1  0
  7 39  1  0
  9 40  1  0
 10 41  1  0
 13 42  1  0
 13 43  1  0
 14 44  1  0
 15 45  1  0
 17 46  1  0
 18 47  1  0
 26 48  1  0
 27 49  1  0
 28 50  1  0
 29 51  1  0
 32 52  1  0
M  END
>  <Energy>  (485) 
622.10328818157939

>  <compound_id>  (485) 
2644

>  <target_id>  (485) 
1

>  <reference_id>  (485) 
177

>  <inspiration_ids>  (485) 
[177, 132]

>  <energy_score>  (485) 
496.16537105611553

>  <distance_score>  (485) 
4.998198865974778

>  <path>  (485) 
/opt/xchem-fragalysis-2/maxwin/BulkDock/SCRATCH/505736/C2644-P177/C2644-P177.minimised.mol

>  <scratch_subdir>  (485) 
/opt/xchem-fragalysis-2/maxwin/BulkDock/SCRATCH/505736/C2644-P177

>  <fragmenstein_runtime>  (485) 
28.205095529556274

>  <fragmenstein_outcome>  (485) 
too moved

>  <fragmenstein_mode>  (485) 
expansion

>  <fragmenstein_error>  (485) 


$$$$
C2644-P132
     RDKit          3D

 52 57  0  0  0  0  0  0  0  0999 V2000
    3.3695   -5.7931   25.6506 O   0  0  0  0  0  0  0  0  0  0  0  0
    3.0124   -4.6486   25.7229 C   0  0  0  0  0  0  0  0  0  0  0  0
    2.4346   -3.6723   24.2433 C   0  0  0  0  0  0  0  0  0  0  0  0
    1.4532   -3.6944   22.5277 S   0  0  0  0  0  0  0  0  0  0  0  0
    0.6581   -4.9893   23.8586 Cl  0  0  0  0  0  0  0  0  0  0  0  0
    2.8714   -3.7836   26.8782 N   0  0  0  0  0  0  0  0  0  0  0  0
    4.1889   -3.0100   27.1233 C   0  0  0  0  0  0  0  0  0  0  0  0
    5.4044   -3.8202   27.4370 C   0  0  0  0  0  0  0  0  0  0  0  0
    6.7530   -3.6144   27.0499 C   0  0  0  0  0  0  0  0  0  0  0  0
    7.5798   -4.6066   27.5394 C   0  0  0  0  0  0  0  0  0  0  0  0
    6.7291   -5.7467   28.4990 S   0  0  0  0  0  0  0  0  0  0  0  0
    5.2871   -4.9264   28.2309 C   0  0  0  0  0  0  0  0  0  0  0  0
    3.9635   -5.2954   28.7454 C   0  0  0  0  0  0  0  0  0  0  0  0
    3.0215   -4.0874   28.4005 C   0  0  0  0  0  0  0  0  0  0  0  0
    1.6559   -4.5033   28.8274 N   0  0  0  0  0  0  0  0  0  0  0  0
    1.2759   -4.7047   30.1733 C   0  0  0  0  0  0  0  0  0  0  0  0
    1.5976   -3.8326   31.1595 C   0  0  0  0  0  0  0  0  0  0  0  0
    1.2128   -4.0098   32.5532 C   0  0  0  0  0  0  0  0  0  0  0  0
    0.4870   -5.0837   32.9180 C   0  0  0  0  0  0  0  0  0  0  0  0
   -0.0080   -5.3068   34.5679 S   0  0  0  0  0  0  0  0  0  0  0  0
    1.2368   -6.4190   35.0641 C   0  0  0  0  0  0  0  0  0  0  0  0
    1.9404   -7.1834   34.2530 N   0  0  0  0  0  0  0  0  0  0  0  0
    2.8249   -7.8845   35.0400 N   0  0  0  0  0  0  0  0  0  0  0  0
    2.6060   -7.5099   36.2881 C   0  0  0  0  0  0  0  0  0  0  0  0
    3.3358   -7.9990   37.4089 C   0  0  0  0  0  0  0  0  0  0  0  0
    4.5681   -8.6222   37.4585 C   0  0  0  0  0  0  0  0  0  0  0  0
    4.8381   -8.9336   38.8132 C   0  0  0  0  0  0  0  0  0  0  0  0
    3.7623   -8.4997   39.5538 C   0  0  0  0  0  0  0  0  0  0  0  0
    2.8553   -7.9341   38.6946 N   0  0  0  0  0  0  0  0  0  0  0  0
    1.5810   -6.6015   36.3764 O   0  0  0  0  0  0  0  0  0  0  0  0
    0.1232   -5.9918   31.9182 N   0  0  0  0  0  0  0  0  0  0  0  0
   -0.6206   -7.1448   31.9614 C   0  0  0  0  0  0  0  0  0  0  0  0
   -0.6942   -7.6863   30.7692 N   0  0  0  0  0  0  0  0  0  0  0  0
    0.0365   -6.8985   29.9136 N   0  0  0  0  0  0  0  0  0  0  0  0
    0.4928   -5.8565   30.5800 C   0  0  0  0  0  0  0  0  0  0  0  0
    3.2269   -3.2644   23.6342 H   0  0  0  0  0  0  0  0  0  0  0  0
    0.6760   -2.6531   22.8281 H   0  0  0  0  0  0  0  0  0  0  0  0
    4.0589   -2.1126   27.7482 H   0  0  0  0  0  0  0  0  0  0  0  0
    4.4053   -2.5689   26.1367 H   0  0  0  0  0  0  0  0  0  0  0  0
    7.1185   -2.8070   26.4290 H   0  0  0  0  0  0  0  0  0  0  0  0
    8.6421   -4.7230   27.3685 H   0  0  0  0  0  0  0  0  0  0  0  0
    3.6036   -6.2229   28.2857 H   0  0  0  0  0  0  0  0  0  0  0  0
    3.9956   -5.4429   29.8283 H   0  0  0  0  0  0  0  0  0  0  0  0
    3.2212   -3.2017   29.0222 H   0  0  0  0  0  0  0  0  0  0  0  0
    1.2863   -5.2583   28.2411 H   0  0  0  0  0  0  0  0  0  0  0  0
    2.1468   -2.9215   30.9415 H   0  0  0  0  0  0  0  0  0  0  0  0
    1.5237   -3.2454   33.2603 H   0  0  0  0  0  0  0  0  0  0  0  0
    5.2058   -8.8355   36.6092 H   0  0  0  0  0  0  0  0  0  0  0  0
    5.7167   -9.4311   39.2049 H   0  0  0  0  0  0  0  0  0  0  0  0
    3.5569   -8.5570   40.6150 H   0  0  0  0  0  0  0  0  0  0  0  0
    1.9534   -7.5625   38.9657 H   0  0  0  0  0  0  0  0  0  0  0  0
   -1.0737   -7.5405   32.8592 H   0  0  0  0  0  0  0  0  0  0  0  0
  1  2  2  0
  2  3  1  0
  3  4  1  0
  3  5  1  0
  2  6  1  0
  6  7  1  0
  7  8  1  0
  8  9  1  0
  9 10  2  0
 10 11  1  0
 11 12  1  0
 12 13  1  0
 13 14  1  0
 14 15  1  0
 15 16  1  0
 16 17  2  0
 17 18  1  0
 18 19  2  0
 19 20  1  0
 20 21  1  0
 21 22  2  0
 22 23  1  0
 23 24  2  0
 24 25  1  0
 25 26  2  0
 26 27  1  0
 27 28  2  0
 28 29  1  0
 24 30  1  0
 19 31  1  0
 31 32  1  0
 32 33  2  0
 33 34  1  0
 34 35  2  0
 14  6  1  0
 35 16  1  0
 12  8  2  0
 30 21  1  0
 35 31  1  0
 29 25  1  0
  3 36  1  0
  4 37  1  0
  7 38  1  0
  7 39  1  0
  9 40  1  0
 10 41  1  0
 13 42  1  0
 13 43  1  0
 14 44  1  0
 15 45  1  0
 17 46  1  0
 18 47  1  0
 26 48  1  0
 27 49  1  0
 28 50  1  0
 29 51  1  0
 32 52  1  0
M  END
>  <Energy>  (486) 
304.6494939627604

>  <compound_id>  (486) 
2644

>  <target_id>  (486) 
1

>  <reference_id>  (486) 
132

>  <inspiration_ids>  (486) 
[177, 132]

>  <energy_score>  (486) 
178.71157683732304

>  <distance_score>  (486) 
5.1498970187745625

>  <path>  (486) 
/opt/xchem-fragalysis-2/maxwin/BulkDock/SCRATCH/505736/C2644-P132/C2644-P132.minimised.mol

>  <scratch_subdir>  (486) 
/opt/xchem-fragalysis-2/maxwin/BulkDock/SCRATCH/505736/C2644-P132

>  <fragmenstein_runtime>  (486) 
18.11459708213806

>  <fragmenstein_outcome>  (486) 
too moved

>  <fragmenstein_mode>  (486) 
expansion

>  <fragmenstein_error>  (486) 


$$$$
C2645-P177
     RDKit          3D

 52 57  0  0  0  0  0  0  0  0999 V2000
    1.7420   -0.6542   19.8900 O   0  0  0  0  0  0  0  0  0  0  0  0
    1.3870   -1.8004   19.8624 C   0  0  0  0  0  0  0  0  0  0  0  0
    1.3238   -2.2790   18.3350 C   0  0  0  0  0  0  0  0  0  0  0  0
    1.7270   -0.2080   17.4543 S   0  0  0  0  0  0  0  0  0  0  0  0
   -0.2312   -1.6330   17.8027 Cl  0  0  0  0  0  0  0  0  0  0  0  0
    0.7569   -2.9328   21.4652 N   0  0  0  0  0  0  0  0  0  0  0  0
    1.9439   -3.8831   22.4191 C   0  0  0  0  0  0  0  0  0  0  0  0
    2.9880   -3.2689   23.9002 C   0  0  0  0  0  0  0  0  0  0  0  0
    4.2722   -2.6214   24.2211 C   0  0  0  0  0  0  0  0  0  0  0  0
    4.5637   -2.4817   25.5695 C   0  0  0  0  0  0  0  0  0  0  0  0
    3.1554   -2.7620   26.4701 S   0  0  0  0  0  0  0  0  0  0  0  0
    2.3523   -2.9928   25.0263 C   0  0  0  0  0  0  0  0  0  0  0  0
    1.0103   -2.8202   24.7365 C   0  0  0  0  0  0  0  0  0  0  0  0
    0.4325   -2.4740   23.2757 C   0  0  0  0  0  0  0  0  0  0  0  0
   -1.1955   -2.5661   23.8499 N   0  0  0  0  0  0  0  0  0  0  0  0
   -1.4762   -2.7802   25.3233 C   0  0  0  0  0  0  0  0  0  0  0  0
   -1.4011   -1.7589   26.4182 C   0  0  0  0  0  0  0  0  0  0  0  0
   -0.9191   -2.0261   27.6666 C   0  0  0  0  0  0  0  0  0  0  0  0
   -0.6632   -0.7091   28.7760 S   0  0  0  0  0  0  0  0  0  0  0  0
   -1.3769   -1.2895   30.2551 C   0  0  0  0  0  0  0  0  0  0  0  0
   -1.9976   -2.4372   30.4376 N   0  0  0  0  0  0  0  0  0  0  0  0
   -2.3400   -2.5051   31.7719 N   0  0  0  0  0  0  0  0  0  0  0  0
   -1.9186   -1.3827   32.3251 C   0  0  0  0  0  0  0  0  0  0  0  0
   -2.0599   -1.0577   33.7047 C   0  0  0  0  0  0  0  0  0  0  0  0
   -1.7456    0.1079   34.3766 C   0  0  0  0  0  0  0  0  0  0  0  0
   -2.0637   -0.0842   35.7435 C   0  0  0  0  0  0  0  0  0  0  0  0
   -2.5593   -1.3617   35.8710 C   0  0  0  0  0  0  0  0  0  0  0  0
   -2.5563   -1.9455   34.6285 N   0  0  0  0  0  0  0  0  0  0  0  0
   -1.3064   -0.5611   31.4129 O   0  0  0  0  0  0  0  0  0  0  0  0
   -0.5609   -3.3463   27.9603 N   0  0  0  0  0  0  0  0  0  0  0  0
    0.0673   -3.9644   29.0151 C   0  0  0  0  0  0  0  0  0  0  0  0
    0.0735   -5.2689   28.8528 N   0  0  0  0  0  0  0  0  0  0  0  0
   -0.5048   -5.5305   27.6343 N   0  0  0  0  0  0  0  0  0  0  0  0
   -0.8435   -4.3767   27.0891 C   0  0  0  0  0  0  0  0  0  0  0  0
   -1.4123   -4.0431   25.7795 C   0  0  0  0  0  0  0  0  0  0  0  0
    2.0640   -2.8374   17.7686 H   0  0  0  0  0  0  0  0  0  0  0  0
    1.0007    0.4126   18.3859 H   0  0  0  0  0  0  0  0  0  0  0  0
    1.2223   -4.5019   22.9187 H   0  0  0  0  0  0  0  0  0  0  0  0
    2.1611   -2.9200   22.7023 H   0  0  0  0  0  0  0  0  0  0  0  0
    5.0005   -2.2960   23.5017 H   0  0  0  0  0  0  0  0  0  0  0  0
    5.4816   -2.1365   26.0231 H   0  0  0  0  0  0  0  0  0  0  0  0
    0.6293   -3.7544   24.9897 H   0  0  0  0  0  0  0  0  0  0  0  0
    0.7154   -2.1046   25.4876 H   0  0  0  0  0  0  0  0  0  0  0  0
    0.3082   -1.5191   23.1684 H   0  0  0  0  0  0  0  0  0  0  0  0
   -1.6653   -1.7053   23.5309 H   0  0  0  0  0  0  0  0  0  0  0  0
   -1.7049   -0.7575   26.2003 H   0  0  0  0  0  0  0  0  0  0  0  0
   -1.3262    1.0015   33.9316 H   0  0  0  0  0  0  0  0  0  0  0  0
   -1.9355    0.6283   36.5486 H   0  0  0  0  0  0  0  0  0  0  0  0
   -2.9046   -1.9117   36.7361 H   0  0  0  0  0  0  0  0  0  0  0  0
   -2.8585   -2.8971   34.4227 H   0  0  0  0  0  0  0  0  0  0  0  0
    0.4847   -3.4371   29.8588 H   0  0  0  0  0  0  0  0  0  0  0  0
   -1.5937   -4.8352   25.0690 H   0  0  0  0  0  0  0  0  0  0  0  0
  1  2  2  0
  2  3  1  0
  3  4  1  0
  3  5  1  0
  2  6  1  0
  6  7  1  0
  7  8  1  0
  8  9  1  0
  9 10  2  0
 10 11  1  0
 11 12  1  0
 12 13  1  0
 13 14  1  0
 14 15  1  0
 15 16  1  0
 16 17  1  0
 17 18  2  0
 18 19  1  0
 19 20  1  0
 20 21  2  0
 21 22  1  0
 22 23  2  0
 23 24  1  0
 24 25  2  0
 25 26  1  0
 26 27  2  0
 27 28  1  0
 23 29  1  0
 18 30  1  0
 30 31  1  0
 31 32  2  0
 32 33  1  0
 33 34  2  0
 34 35  1  0
 14  6  1  0
 35 16  2  0
 12  8  2  0
 29 20  1  0
 34 30  1  0
 28 24  1  0
  3 36  1  0
  4 37  1  0
  7 38  1  0
  7 39  1  0
  9 40  1  0
 10 41  1  0
 13 42  1  0
 13 43  1  0
 14 44  1  0
 15 45  1  0
 17 46  1  0
 25 47  1  0
 26 48  1  0
 27 49  1  0
 28 50  1  0
 31 51  1  0
 35 52  1  0
M  END
>  <Energy>  (487) 
723.94419141876767

>  <compound_id>  (487) 
2645

>  <target_id>  (487) 
1

>  <reference_id>  (487) 
177

>  <inspiration_ids>  (487) 
[177, 133]

>  <energy_score>  (487) 
592.4875522777974

>  <distance_score>  (487) 
6.769548835056331

>  <path>  (487) 
/opt/xchem-fragalysis-2/maxwin/BulkDock/SCRATCH/505736/C2645-P177/C2645-P177.minimised.mol

>  <scratch_subdir>  (487) 
/opt/xchem-fragalysis-2/maxwin/BulkDock/SCRATCH/505736/C2645-P177

>  <fragmenstein_runtime>  (487) 
20.84724712371826

>  <fragmenstein_outcome>  (487) 
too moved

>  <fragmenstein_mode>  (487) 
expansion

>  <fragmenstein_error>  (487) 


$$$$
C2645-P133
     RDKit          3D

 52 57  0  0  0  0  0  0  0  0999 V2000
    0.0272   -5.1406   24.1942 O   0  0  0  0  0  0  0  0  0  0  0  0
    1.1492   -4.6864   24.1157 C   0  0  0  0  0  0  0  0  0  0  0  0
    1.6084   -4.0973   22.7737 C   0  0  0  0  0  0  0  0  0  0  0  0
    0.5937   -2.7039   22.4693 S   0  0  0  0  0  0  0  0  0  0  0  0
    1.1642   -5.0020   21.4478 Cl  0  0  0  0  0  0  0  0  0  0  0  0
    2.3997   -4.4471   25.4790 N   0  0  0  0  0  0  0  0  0  0  0  0
    3.3728   -5.7746   25.6652 C   0  0  0  0  0  0  0  0  0  0  0  0
    4.6694   -5.3257   26.2929 C   0  0  0  0  0  0  0  0  0  0  0  0
    5.9917   -5.7677   26.0095 C   0  0  0  0  0  0  0  0  0  0  0  0
    6.9278   -5.1422   26.8088 C   0  0  0  0  0  0  0  0  0  0  0  0
    6.2186   -4.0148   27.8804 S   0  0  0  0  0  0  0  0  0  0  0  0
    4.6838   -4.3770   27.2816 C   0  0  0  0  0  0  0  0  0  0  0  0
    3.4334   -3.7597   27.7628 C   0  0  0  0  0  0  0  0  0  0  0  0
    2.2423   -4.6748   27.2193 C   0  0  0  0  0  0  0  0  0  0  0  0
    2.1102   -5.8053   28.1698 N   0  0  0  0  0  0  0  0  0  0  0  0
    1.4136   -5.6943   29.4361 C   0  0  0  0  0  0  0  0  0  0  0  0
    1.2790   -4.4132   30.1668 C   0  0  0  0  0  0  0  0  0  0  0  0
    0.6506   -4.3260   31.3654 C   0  0  0  0  0  0  0  0  0  0  0  0
    0.6148   -2.8082   32.2186 S   0  0  0  0  0  0  0  0  0  0  0  0
   -1.1062   -2.5626   32.3281 C   0  0  0  0  0  0  0  0  0  0  0  0
   -2.0097   -3.1689   31.5854 N   0  0  0  0  0  0  0  0  0  0  0  0
   -3.2371   -2.7409   32.0378 N   0  0  0  0  0  0  0  0  0  0  0  0
   -3.0103   -1.9065   33.0376 C   0  0  0  0  0  0  0  0  0  0  0  0
   -4.0383   -1.2974   33.8162 C   0  0  0  0  0  0  0  0  0  0  0  0
   -3.9555   -0.4658   34.9155 C   0  0  0  0  0  0  0  0  0  0  0  0
   -5.2784   -0.1767   35.3366 C   0  0  0  0  0  0  0  0  0  0  0  0
   -6.1335   -0.8352   34.4819 C   0  0  0  0  0  0  0  0  0  0  0  0
   -5.3721   -1.5108   33.5621 N   0  0  0  0  0  0  0  0  0  0  0  0
   -1.6674   -1.7322   33.2596 O   0  0  0  0  0  0  0  0  0  0  0  0
    0.0822   -5.4873   31.9023 N   0  0  0  0  0  0  0  0  0  0  0  0
   -0.5773   -5.7688   33.0719 C   0  0  0  0  0  0  0  0  0  0  0  0
   -0.9602   -7.0260   33.0878 N   0  0  0  0  0  0  0  0  0  0  0  0
   -0.5366   -7.6082   31.9216 N   0  0  0  0  0  0  0  0  0  0  0  0
    0.1055   -6.6934   31.2336 C   0  0  0  0  0  0  0  0  0  0  0  0
    0.7963   -6.7644   30.0009 C   0  0  0  0  0  0  0  0  0  0  0  0
    2.5690   -3.6009   22.8311 H   0  0  0  0  0  0  0  0  0  0  0  0
   -0.4402   -2.7710   23.3174 H   0  0  0  0  0  0  0  0  0  0  0  0
    2.8704   -6.5521   26.2332 H   0  0  0  0  0  0  0  0  0  0  0  0
    3.6706   -6.4351   24.8668 H   0  0  0  0  0  0  0  0  0  0  0  0
    6.2641   -6.4937   25.2520 H   0  0  0  0  0  0  0  0  0  0  0  0
    8.0013   -5.2763   26.7922 H   0  0  0  0  0  0  0  0  0  0  0  0
    3.4708   -3.6902   28.8505 H   0  0  0  0  0  0  0  0  0  0  0  0
    3.3361   -2.7463   27.3563 H   0  0  0  0  0  0  0  0  0  0  0  0
    1.3636   -4.0606   27.4413 H   0  0  0  0  0  0  0  0  0  0  0  0
    1.7920   -6.6414   27.7021 H   0  0  0  0  0  0  0  0  0  0  0  0
    1.6772   -3.5081   29.7292 H   0  0  0  0  0  0  0  0  0  0  0  0
   -3.0398   -0.1145   35.3745 H   0  0  0  0  0  0  0  0  0  0  0  0
   -5.5706    0.4437   36.1740 H   0  0  0  0  0  0  0  0  0  0  0  0
   -7.2138   -0.8801   34.4372 H   0  0  0  0  0  0  0  0  0  0  0  0
   -5.7289   -2.0845   32.8074 H   0  0  0  0  0  0  0  0  0  0  0  0
   -0.7631   -5.0501   33.8574 H   0  0  0  0  0  0  0  0  0  0  0  0
    0.8232   -7.7573   29.5678 H   0  0  0  0  0  0  0  0  0  0  0  0
  1  2  2  0
  2  3  1  0
  3  4  1  0
  3  5  1  0
  2  6  1  0
  6  7  1  0
  7  8  1  0
  8  9  1  0
  9 10  2  0
 10 11  1  0
 11 12  1  0
 12 13  1  0
 13 14  1  0
 14 15  1  0
 15 16  1  0
 16 17  1  0
 17 18  2  0
 18 19  1  0
 19 20  1  0
 20 21  2  0
 21 22  1  0
 22 23  2  0
 23 24  1  0
 24 25  2  0
 25 26  1  0
 26 27  2  0
 27 28  1  0
 23 29  1  0
 18 30  1  0
 30 31  1  0
 31 32  2  0
 32 33  1  0
 33 34  2  0
 34 35  1  0
 14  6  1  0
 35 16  2  0
 12  8  2  0
 29 20  1  0
 34 30  1  0
 28 24  1  0
  3 36  1  0
  4 37  1  0
  7 38  1  0
  7 39  1  0
  9 40  1  0
 10 41  1  0
 13 42  1  0
 13 43  1  0
 14 44  1  0
 15 45  1  0
 17 46  1  0
 25 47  1  0
 26 48  1  0
 27 49  1  0
 28 50  1  0
 31 51  1  0
 35 52  1  0
M  END
>  <Energy>  (488) 
255.60771070969656

>  <compound_id>  (488) 
2645

>  <target_id>  (488) 
1

>  <reference_id>  (488) 
133

>  <inspiration_ids>  (488) 
[177, 133]

>  <energy_score>  (488) 
124.15107156875479

>  <distance_score>  (488) 
5.142699325804648

>  <path>  (488) 
/opt/xchem-fragalysis-2/maxwin/BulkDock/SCRATCH/505736/C2645-P133/C2645-P133.minimised.mol

>  <scratch_subdir>  (488) 
/opt/xchem-fragalysis-2/maxwin/BulkDock/SCRATCH/505736/C2645-P133

>  <fragmenstein_runtime>  (488) 
20.11595344543457

>  <fragmenstein_outcome>  (488) 
too moved

>  <fragmenstein_mode>  (488) 
expansion

>  <fragmenstein_error>  (488) 


$$$$
C2646-P177
     RDKit          3D

 56 61  0  0  0  0  0  0  0  0999 V2000
    0.6967   -4.4401   21.0827 O   0  0  0  0  0  0  0  0  0  0  0  0
    0.9664   -3.2704   21.3689 C   0  0  0  0  0  0  0  0  0  0  0  0
    1.2107   -1.8057   19.7370 C   0  0  0  0  0  0  0  0  0  0  0  0
    2.3091   -1.6430   18.3082 S   0  0  0  0  0  0  0  0  0  0  0  0
   -0.0676   -1.6094   18.0275 Cl  0  0  0  0  0  0  0  0  0  0  0  0
    1.0304   -2.6903   23.1462 N   0  0  0  0  0  0  0  0  0  0  0  0
    2.4151   -2.8438   23.7122 C   0  0  0  0  0  0  0  0  0  0  0  0
    3.3865   -2.8874   24.8613 C   0  0  0  0  0  0  0  0  0  0  0  0
    4.6544   -2.2730   25.0534 C   0  0  0  0  0  0  0  0  0  0  0  0
    5.3062   -2.7227   26.1861 C   0  0  0  0  0  0  0  0  0  0  0  0
    4.3597   -3.8846   27.0177 S   0  0  0  0  0  0  0  0  0  0  0  0
    3.1054   -3.6271   25.9298 C   0  0  0  0  0  0  0  0  0  0  0  0
    1.8141   -4.2419   25.8496 C   0  0  0  0  0  0  0  0  0  0  0  0
    0.6569   -3.4732   24.5988 C   0  0  0  0  0  0  0  0  0  0  0  0
   -0.0343   -2.4582   25.6271 N   0  0  0  0  0  0  0  0  0  0  0  0
    0.3677   -2.2035   27.0062 C   0  0  0  0  0  0  0  0  0  0  0  0
    1.5671   -1.7069   27.4023 C   0  0  0  0  0  0  0  0  0  0  0  0
    2.1579   -2.0034   28.7213 C   0  0  0  0  0  0  0  0  0  0  0  0
    1.4782   -2.7166   29.6458 C   0  0  0  0  0  0  0  0  0  0  0  0
    2.0094   -3.1232   30.8987 N   0  0  0  0  0  0  0  0  0  0  0  0
    1.5261   -2.5026   32.0194 C   0  0  0  0  0  0  0  0  0  0  0  0
    0.4548   -2.7443   32.7448 N   0  0  0  0  0  0  0  0  0  0  0  0
   -0.1563   -1.5177   32.9665 N   0  0  0  0  0  0  0  0  0  0  0  0
    0.6061   -0.6059   32.3920 C   0  0  0  0  0  0  0  0  0  0  0  0
    0.2323    0.5104   31.5337 C   0  0  0  0  0  0  0  0  0  0  0  0
   -0.7695    0.2951   30.5767 C   0  0  0  0  0  0  0  0  0  0  0  0
   -0.8530    1.1094   29.4515 C   0  0  0  0  0  0  0  0  0  0  0  0
    0.0146    2.1907   29.3224 C   0  0  0  0  0  0  0  0  0  0  0  0
    0.9461    2.4741   30.3193 C   0  0  0  0  0  0  0  0  0  0  0  0
    1.0624    1.6313   31.4223 C   0  0  0  0  0  0  0  0  0  0  0  0
    1.8544   -1.1800   32.2218 N   0  0  0  0  0  0  0  0  0  0  0  0
    0.1235   -2.9107   29.3388 N   0  0  0  0  0  0  0  0  0  0  0  0
   -0.9113   -3.3461   30.1093 C   0  0  0  0  0  0  0  0  0  0  0  0
   -2.0292   -2.8843   29.6083 N   0  0  0  0  0  0  0  0  0  0  0  0
   -1.7502   -2.3252   28.3789 N   0  0  0  0  0  0  0  0  0  0  0  0
   -0.4727   -2.5075   28.1402 C   0  0  0  0  0  0  0  0  0  0  0  0
    1.1556   -0.8200   19.9655 H   0  0  0  0  0  0  0  0  0  0  0  0
    1.5500   -0.7174   17.7021 H   0  0  0  0  0  0  0  0  0  0  0  0
    2.3182   -1.8778   24.1460 H   0  0  0  0  0  0  0  0  0  0  0  0
    2.8967   -3.4205   22.9918 H   0  0  0  0  0  0  0  0  0  0  0  0
    5.0728   -1.5625   24.3608 H   0  0  0  0  0  0  0  0  0  0  0  0
    6.2944   -2.4546   26.5339 H   0  0  0  0  0  0  0  0  0  0  0  0
    2.2065   -5.2302   25.6321 H   0  0  0  0  0  0  0  0  0  0  0  0
    1.3158   -4.3580   26.8183 H   0  0  0  0  0  0  0  0  0  0  0  0
   -0.2526   -3.9848   24.3006 H   0  0  0  0  0  0  0  0  0  0  0  0
   -1.0321   -2.7029   25.6805 H   0  0  0  0  0  0  0  0  0  0  0  0
    2.2641   -1.2863   26.6862 H   0  0  0  0  0  0  0  0  0  0  0  0
    3.1930   -1.7073   28.8588 H   0  0  0  0  0  0  0  0  0  0  0  0
    3.0257   -3.0539   30.8319 H   0  0  0  0  0  0  0  0  0  0  0  0
   -1.4350   -0.5614   30.6564 H   0  0  0  0  0  0  0  0  0  0  0  0
   -1.5895    0.8999   28.6796 H   0  0  0  0  0  0  0  0  0  0  0  0
   -0.0537    2.8399   28.4576 H   0  0  0  0  0  0  0  0  0  0  0  0
    1.5978    3.3385   30.2159 H   0  0  0  0  0  0  0  0  0  0  0  0
    1.8402    1.8267   32.1564 H   0  0  0  0  0  0  0  0  0  0  0  0
    2.5723   -0.7231   31.6895 H   0  0  0  0  0  0  0  0  0  0  0  0
   -0.8007   -3.8766   31.0421 H   0  0  0  0  0  0  0  0  0  0  0  0
  1  2  2  0
  2  3  1  0
  3  4  1  0
  3  5  1  0
  2  6  1  0
  6  7  1  0
  7  8  1  0
  8  9  1  0
  9 10  2  0
 10 11  1  0
 11 12  1  0
 12 13  1  0
 13 14  1  0
 14 15  1  0
 15 16  1  0
 16 17  2  0
 17 18  1  0
 18 19  2  0
 19 20  1  0
 20 21  1  0
 21 22  2  0
 22 23  1  0
 23 24  2  0
 24 25  1  0
 25 26  2  0
 26 27  1  0
 27 28  2  0
 28 29  1  0
 29 30  2  0
 24 31  1  0
 19 32  1  0
 32 33  1  0
 33 34  2  0
 34 35  1  0
 35 36  2  0
 14  6  1  0
 36 16  1  0
 12  8  2  0
 31 21  1  0
 36 32  1  0
 30 25  1  0
  3 37  1  0
  4 38  1  0
  7 39  1  0
  7 40  1  0
  9 41  1  0
 10 42  1  0
 13 43  1  0
 13 44  1  0
 14 45  1  0
 15 46  1  0
 17 47  1  0
 18 48  1  0
 20 49  1  0
 26 50  1  0
 27 51  1  0
 28 52  1  0
 29 53  1  0
 30 54  1  0
 31 55  1  0
 33 56  1  0
M  END
>  <Energy>  (489) 
627.25382134547283

>  <compound_id>  (489) 
2646

>  <target_id>  (489) 
1

>  <reference_id>  (489) 
177

>  <inspiration_ids>  (489) 
[177, 134]

>  <energy_score>  (489) 
497.37157740594546

>  <distance_score>  (489) 
5.252096725950296

>  <path>  (489) 
/opt/xchem-fragalysis-2/maxwin/BulkDock/SCRATCH/505736/C2646-P177/C2646-P177.minimised.mol

>  <scratch_subdir>  (489) 
/opt/xchem-fragalysis-2/maxwin/BulkDock/SCRATCH/505736/C2646-P177

>  <fragmenstein_runtime>  (489) 
82.30195498466492

>  <fragmenstein_outcome>  (489) 
too moved

>  <fragmenstein_mode>  (489) 
expansion

>  <fragmenstein_error>  (489) 


$$$$
C2646-P134
     RDKit          3D

 56 61  0  0  0  0  0  0  0  0999 V2000
    3.6602   -5.4096   25.4028 O   0  0  0  0  0  0  0  0  0  0  0  0
    3.1124   -4.3445   25.5027 C   0  0  0  0  0  0  0  0  0  0  0  0
    2.4088   -3.4679   23.9849 C   0  0  0  0  0  0  0  0  0  0  0  0
    0.5886   -4.8232   23.6143 S   0  0  0  0  0  0  0  0  0  0  0  0
    1.3744   -3.5294   22.3302 Cl  0  0  0  0  0  0  0  0  0  0  0  0
    2.8926   -3.5211   26.6593 N   0  0  0  0  0  0  0  0  0  0  0  0
    4.0776   -2.5172   26.8347 C   0  0  0  0  0  0  0  0  0  0  0  0
    5.4361   -3.0549   27.1552 C   0  0  0  0  0  0  0  0  0  0  0  0
    6.7144   -2.5292   26.8341 C   0  0  0  0  0  0  0  0  0  0  0  0
    7.7335   -3.3214   27.3253 C   0  0  0  0  0  0  0  0  0  0  0  0
    7.1394   -4.6582   28.2202 S   0  0  0  0  0  0  0  0  0  0  0  0
    5.5584   -4.1711   27.9298 C   0  0  0  0  0  0  0  0  0  0  0  0
    4.3452   -4.8055   28.4424 C   0  0  0  0  0  0  0  0  0  0  0  0
    3.1805   -3.7853   28.1562 C   0  0  0  0  0  0  0  0  0  0  0  0
    1.9720   -4.4679   28.6571 N   0  0  0  0  0  0  0  0  0  0  0  0
    1.6280   -4.6574   30.0031 C   0  0  0  0  0  0  0  0  0  0  0  0
    2.1125   -3.8830   31.0029 C   0  0  0  0  0  0  0  0  0  0  0  0
    1.5328   -3.8431   32.3328 C   0  0  0  0  0  0  0  0  0  0  0  0
    0.4139   -4.5547   32.5843 C   0  0  0  0  0  0  0  0  0  0  0  0
   -0.5484   -4.0892   33.5023 N   0  0  0  0  0  0  0  0  0  0  0  0
   -1.3433   -3.1091   32.9598 C   0  0  0  0  0  0  0  0  0  0  0  0
   -2.4865   -3.2564   32.3307 N   0  0  0  0  0  0  0  0  0  0  0  0
   -2.5896   -2.2367   31.4204 N   0  0  0  0  0  0  0  0  0  0  0  0
   -1.5027   -1.4929   31.5146 C   0  0  0  0  0  0  0  0  0  0  0  0
   -0.9721   -0.5641   30.5271 C   0  0  0  0  0  0  0  0  0  0  0  0
   -1.2724   -0.7724   29.1749 C   0  0  0  0  0  0  0  0  0  0  0  0
   -0.7713    0.0785   28.1922 C   0  0  0  0  0  0  0  0  0  0  0  0
    0.0593    1.1358   28.5467 C   0  0  0  0  0  0  0  0  0  0  0  0
    0.3901    1.3402   29.8851 C   0  0  0  0  0  0  0  0  0  0  0  0
   -0.1224    0.4943   30.8737 C   0  0  0  0  0  0  0  0  0  0  0  0
   -0.8354   -1.8749   32.6512 N   0  0  0  0  0  0  0  0  0  0  0  0
    0.0855   -5.5601   31.6599 N   0  0  0  0  0  0  0  0  0  0  0  0
   -0.8042   -6.5988   31.7241 C   0  0  0  0  0  0  0  0  0  0  0  0
   -0.7091   -7.3439   30.6468 N   0  0  0  0  0  0  0  0  0  0  0  0
    0.2451   -6.7746   29.8347 N   0  0  0  0  0  0  0  0  0  0  0  0
    0.6847   -5.6742   30.4118 C   0  0  0  0  0  0  0  0  0  0  0  0
    3.0456   -2.7206   23.5158 H   0  0  0  0  0  0  0  0  0  0  0  0
   -0.1913   -3.7589   23.5604 H   0  0  0  0  0  0  0  0  0  0  0  0
    4.1996   -2.0847   25.8294 H   0  0  0  0  0  0  0  0  0  0  0  0
    3.7886   -1.6389   27.4337 H   0  0  0  0  0  0  0  0  0  0  0  0
    6.9002   -1.6318   26.2605 H   0  0  0  0  0  0  0  0  0  0  0  0
    8.7988   -3.1869   27.1939 H   0  0  0  0  0  0  0  0  0  0  0  0
    4.1602   -5.7705   27.9572 H   0  0  0  0  0  0  0  0  0  0  0  0
    4.4381   -4.9810   29.5174 H   0  0  0  0  0  0  0  0  0  0  0  0
    3.2380   -2.8695   28.7624 H   0  0  0  0  0  0  0  0  0  0  0  0
    1.5927   -5.1906   28.0454 H   0  0  0  0  0  0  0  0  0  0  0  0
    2.8295   -3.0914   30.8123 H   0  0  0  0  0  0  0  0  0  0  0  0
    1.8436   -3.0266   32.9774 H   0  0  0  0  0  0  0  0  0  0  0  0
   -1.1704   -4.8489   33.7951 H   0  0  0  0  0  0  0  0  0  0  0  0
   -1.8987   -1.6085   28.8659 H   0  0  0  0  0  0  0  0  0  0  0  0
   -1.0472   -0.0874   27.1545 H   0  0  0  0  0  0  0  0  0  0  0  0
    0.4350    1.8113   27.7825 H   0  0  0  0  0  0  0  0  0  0  0  0
    1.0258    2.1792   30.1592 H   0  0  0  0  0  0  0  0  0  0  0  0
    0.1313    0.6982   31.9098 H   0  0  0  0  0  0  0  0  0  0  0  0
    0.0695   -1.5434   32.9332 H   0  0  0  0  0  0  0  0  0  0  0  0
   -1.4546   -6.7836   32.5658 H   0  0  0  0  0  0  0  0  0  0  0  0
  1  2  2  0
  2  3  1  0
  3  4  1  0
  3  5  1  0
  2  6  1  0
  6  7  1  0
  7  8  1  0
  8  9  1  0
  9 10  2  0
 10 11  1  0
 11 12  1  0
 12 13  1  0
 13 14  1  0
 14 15  1  0
 15 16  1  0
 16 17  2  0
 17 18  1  0
 18 19  2  0
 19 20  1  0
 20 21  1  0
 21 22  2  0
 22 23  1  0
 23 24  2  0
 24 25  1  0
 25 26  2  0
 26 27  1  0
 27 28  2  0
 28 29  1  0
 29 30  2  0
 24 31  1  0
 19 32  1  0
 32 33  1  0
 33 34  2  0
 34 35  1  0
 35 36  2  0
 14  6  1  0
 36 16  1  0
 12  8  2  0
 31 21  1  0
 36 32  1  0
 30 25  1  0
  3 37  1  0
  4 38  1  0
  7 39  1  0
  7 40  1  0
  9 41  1  0
 10 42  1  0
 13 43  1  0
 13 44  1  0
 14 45  1  0
 15 46  1  0
 17 47  1  0
 18 48  1  0
 20 49  1  0
 26 50  1  0
 27 51  1  0
 28 52  1  0
 29 53  1  0
 30 54  1  0
 31 55  1  0
 33 56  1  0
M  END
>  <Energy>  (490) 
358.11156738793312

>  <compound_id>  (490) 
2646

>  <target_id>  (490) 
1

>  <reference_id>  (490) 
134

>  <inspiration_ids>  (490) 
[177, 134]

>  <energy_score>  (490) 
228.229323448414

>  <distance_score>  (490) 
4.794892514159615

>  <path>  (490) 
/opt/xchem-fragalysis-2/maxwin/BulkDock/SCRATCH/505736/C2646-P134/C2646-P134.minimised.mol

>  <scratch_subdir>  (490) 
/opt/xchem-fragalysis-2/maxwin/BulkDock/SCRATCH/505736/C2646-P134

>  <fragmenstein_runtime>  (490) 
82.63698983192444

>  <fragmenstein_outcome>  (490) 
too moved

>  <fragmenstein_mode>  (490) 
expansion

>  <fragmenstein_error>  (490) 


$$$$
C2647-P177
     RDKit          3D

 63 68  0  0  0  0  0  0  0  0999 V2000
    0.6347   -4.4442   20.9274 O   0  0  0  0  0  0  0  0  0  0  0  0
    1.0435   -3.3192   21.2170 C   0  0  0  0  0  0  0  0  0  0  0  0
    1.2783   -1.8471   19.5827 C   0  0  0  0  0  0  0  0  0  0  0  0
    0.4792   -0.9052   18.0827 S   0  0  0  0  0  0  0  0  0  0  0  0
    2.7936   -2.0968   17.9243 Cl  0  0  0  0  0  0  0  0  0  0  0  0
    1.5811   -2.9302   22.9594 N   0  0  0  0  0  0  0  0  0  0  0  0
    0.5554   -2.4482   23.7677 C   0  0  0  0  0  0  0  0  0  0  0  0
    1.4393   -1.8852   25.2976 C   0  0  0  0  0  0  0  0  0  0  0  0
    2.6997   -1.2484   25.8436 C   0  0  0  0  0  0  0  0  0  0  0  0
    2.5953   -0.9449   27.2022 C   0  0  0  0  0  0  0  0  0  0  0  0
    1.2700   -1.7827   27.8973 S   0  0  0  0  0  0  0  0  0  0  0  0
    0.9563   -2.4059   26.4077 C   0  0  0  0  0  0  0  0  0  0  0  0
    0.6987   -3.6705   25.8772 C   0  0  0  0  0  0  0  0  0  0  0  0
    1.7322   -3.8391   24.2361 C   0  0  0  0  0  0  0  0  0  0  0  0
    3.2164   -3.6975   24.7593 N   0  0  0  0  0  0  0  0  0  0  0  0
    3.7261   -4.0867   26.0252 C   0  0  0  0  0  0  0  0  0  0  0  0
    4.7864   -3.2905   26.6780 C   0  0  0  0  0  0  0  0  0  0  0  0
    4.8499   -3.2172   28.0314 C   0  0  0  0  0  0  0  0  0  0  0  0
    5.8312   -2.3347   28.6351 N   0  0  0  0  0  0  0  0  0  0  0  0
    6.4910   -1.2614   27.8309 C   0  0  0  0  0  0  0  0  0  0  0  0
    7.4846   -0.4295   28.6489 C   0  0  0  0  0  0  0  0  0  0  0  0
    7.1588   -0.3822   30.1385 C   0  0  0  0  0  0  0  0  0  0  0  0
    7.2331   -1.7485   30.8449 C   0  0  0  0  0  0  0  0  0  0  0  0
    8.4985   -2.0396   31.6308 C   0  0  0  0  0  0  0  0  0  0  0  0
    9.7736   -1.6647   31.1824 C   0  0  0  0  0  0  0  0  0  0  0  0
   10.9118   -1.9563   31.9384 C   0  0  0  0  0  0  0  0  0  0  0  0
   10.7945   -2.6288   33.1516 C   0  0  0  0  0  0  0  0  0  0  0  0
    9.5388   -3.0164   33.6087 C   0  0  0  0  0  0  0  0  0  0  0  0
    8.4004   -2.7268   32.8542 C   0  0  0  0  0  0  0  0  0  0  0  0
    6.9200   -3.1326   29.7192 S   0  0  0  0  0  0  0  0  0  0  0  0
    6.2054   -4.1547   30.4560 O   0  0  0  0  0  0  0  0  0  0  0  0
    8.1091   -3.4523   28.9582 O   0  0  0  0  0  0  0  0  0  0  0  0
    3.8689   -3.9125   28.7593 N   0  0  0  0  0  0  0  0  0  0  0  0
    3.3650   -3.7765   30.0309 C   0  0  0  0  0  0  0  0  0  0  0  0
    2.3100   -4.5488   30.1958 N   0  0  0  0  0  0  0  0  0  0  0  0
    2.1122   -5.2310   29.0132 N   0  0  0  0  0  0  0  0  0  0  0  0
    3.0612   -4.8646   28.1717 C   0  0  0  0  0  0  0  0  0  0  0  0
    3.2234   -5.0879   26.7745 C   0  0  0  0  0  0  0  0  0  0  0  0
    0.8258   -2.6147   18.8294 H   0  0  0  0  0  0  0  0  0  0  0  0
    1.6357   -0.6042   17.4760 H   0  0  0  0  0  0  0  0  0  0  0  0
   -0.2424   -3.1745   23.9790 H   0  0  0  0  0  0  0  0  0  0  0  0
   -0.1066   -1.8080   23.2423 H   0  0  0  0  0  0  0  0  0  0  0  0
    3.5362   -0.8743   25.2724 H   0  0  0  0  0  0  0  0  0  0  0  0
    3.2620   -0.3509   27.8093 H   0  0  0  0  0  0  0  0  0  0  0  0
   -0.4024   -3.6780   25.7286 H   0  0  0  0  0  0  0  0  0  0  0  0
    0.9921   -4.3875   26.6462 H   0  0  0  0  0  0  0  0  0  0  0  0
    1.4547   -4.6217   23.5706 H   0  0  0  0  0  0  0  0  0  0  0  0
    3.6460   -2.8675   24.3534 H   0  0  0  0  0  0  0  0  0  0  0  0
    5.4650   -2.7891   26.0004 H   0  0  0  0  0  0  0  0  0  0  0  0
    5.7101   -0.5904   27.4550 H   0  0  0  0  0  0  0  0  0  0  0  0
    7.0200   -1.6818   26.9694 H   0  0  0  0  0  0  0  0  0  0  0  0
    7.5061    0.5896   28.2437 H   0  0  0  0  0  0  0  0  0  0  0  0
    8.4956   -0.8241   28.4995 H   0  0  0  0  0  0  0  0  0  0  0  0
    7.8002    0.3515   30.6411 H   0  0  0  0  0  0  0  0  0  0  0  0
    6.1352    0.0045   30.2403 H   0  0  0  0  0  0  0  0  0  0  0  0
    6.3930   -1.7654   31.5538 H   0  0  0  0  0  0  0  0  0  0  0  0
    9.9105   -1.1556   30.2326 H   0  0  0  0  0  0  0  0  0  0  0  0
   11.8937   -1.6659   31.5727 H   0  0  0  0  0  0  0  0  0  0  0  0
   11.6822   -2.8593   33.7345 H   0  0  0  0  0  0  0  0  0  0  0  0
    9.4450   -3.5515   34.5502 H   0  0  0  0  0  0  0  0  0  0  0  0
    7.4319   -3.0535   33.2302 H   0  0  0  0  0  0  0  0  0  0  0  0
    3.7760   -3.0944   30.7581 H   0  0  0  0  0  0  0  0  0  0  0  0
    2.5803   -5.8130   26.3401 H   0  0  0  0  0  0  0  0  0  0  0  0
  1  2  2  0
  2  3  1  0
  3  4  1  0
  3  5  1  0
  2  6  1  0
  6  7  1  0
  7  8  1  0
  8  9  1  0
  9 10  2  0
 10 11  1  0
 11 12  1  0
 12 13  1  0
 13 14  1  0
 14 15  1  0
 15 16  1  0
 16 17  1  0
 17 18  2  0
 18 19  1  0
 19 20  1  0
 20 21  1  0
 21 22  1  0
 22 23  1  0
 23 24  1  0
 24 25  2  0
 25 26  1  0
 26 27  2  0
 27 28  1  0
 28 29  2  0
 23 30  1  0
 30 31  2  0
 30 32  2  0
 18 33  1  0
 33 34  1  0
 34 35  2  0
 35 36  1  0
 36 37  2  0
 37 38  1  0
 14  6  1  0
 38 16  2  0
 12  8  2  0
 30 19  1  0
 37 33  1  0
 29 24  1  0
  3 39  1  0
  4 40  1  0
  7 41  1  0
  7 42  1  0
  9 43  1  0
 10 44  1  0
 13 45  1  0
 13 46  1  0
 14 47  1  0
 15 48  1  0
 17 49  1  0
 20 50  1  0
 20 51  1  0
 21 52  1  0
 21 53  1  0
 22 54  1  0
 22 55  1  0
 23 56  1  0
 25 57  1  0
 26 58  1  0
 27 59  1  0
 28 60  1  0
 29 61  1  0
 34 62  1  0
 38 63  1  0
M  END
>  <Energy>  (491) 
705.38391403343564

>  <compound_id>  (491) 
2647

>  <target_id>  (491) 
1

>  <reference_id>  (491) 
177

>  <inspiration_ids>  (491) 
[177, 135]

>  <energy_score>  (491) 
533.2047737133879

>  <distance_score>  (491) 
6.8148098847051495

>  <path>  (491) 
/opt/xchem-fragalysis-2/maxwin/BulkDock/SCRATCH/505736/C2647-P177/C2647-P177.minimised.mol

>  <scratch_subdir>  (491) 
/opt/xchem-fragalysis-2/maxwin/BulkDock/SCRATCH/505736/C2647-P177

>  <fragmenstein_runtime>  (491) 
26.821310997009277

>  <fragmenstein_outcome>  (491) 
too moved

>  <fragmenstein_mode>  (491) 
expansion

>  <fragmenstein_error>  (491) 


$$$$
C2647-P135
     RDKit          3D

 63 68  0  0  0  0  0  0  0  0999 V2000
    0.9965   -6.4288   23.6142 O   0  0  0  0  0  0  0  0  0  0  0  0
    0.9048   -5.4817   24.3538 C   0  0  0  0  0  0  0  0  0  0  0  0
    0.0947   -4.5134   23.7598 C   0  0  0  0  0  0  0  0  0  0  0  0
   -1.7802   -5.0560   24.3050 S   0  0  0  0  0  0  0  0  0  0  0  0
    1.0387   -3.3538   22.7010 Cl  0  0  0  0  0  0  0  0  0  0  0  0
    1.7517   -5.2528   25.8811 N   0  0  0  0  0  0  0  0  0  0  0  0
    3.1677   -4.4647   25.6496 C   0  0  0  0  0  0  0  0  0  0  0  0
    4.5977   -4.8007   25.9545 C   0  0  0  0  0  0  0  0  0  0  0  0
    5.6658   -3.9279   26.3031 C   0  0  0  0  0  0  0  0  0  0  0  0
    6.7776   -4.6375   26.7135 C   0  0  0  0  0  0  0  0  0  0  0  0
    6.5490   -6.3368   26.5934 S   0  0  0  0  0  0  0  0  0  0  0  0
    4.9732   -6.0968   26.0833 C   0  0  0  0  0  0  0  0  0  0  0  0
    3.8795   -7.0485   26.0469 C   0  0  0  0  0  0  0  0  0  0  0  0
    2.7011   -6.2421   26.6868 C   0  0  0  0  0  0  0  0  0  0  0  0
    2.9430   -5.7361   28.0857 N   0  0  0  0  0  0  0  0  0  0  0  0
    2.0294   -5.5008   29.1109 C   0  0  0  0  0  0  0  0  0  0  0  0
    2.0443   -4.1741   29.7514 C   0  0  0  0  0  0  0  0  0  0  0  0
    1.2599   -3.9272   30.8224 C   0  0  0  0  0  0  0  0  0  0  0  0
    1.3287   -2.6299   31.4386 N   0  0  0  0  0  0  0  0  0  0  0  0
    1.1018   -1.4207   30.5965 C   0  0  0  0  0  0  0  0  0  0  0  0
    1.4953   -0.1209   31.3025 C   0  0  0  0  0  0  0  0  0  0  0  0
    1.2013   -0.1459   32.8003 C   0  0  0  0  0  0  0  0  0  0  0  0
    2.0355   -1.1691   33.5930 C   0  0  0  0  0  0  0  0  0  0  0  0
    3.2151   -0.6170   34.3715 C   0  0  0  0  0  0  0  0  0  0  0  0
    4.0514    0.3900   33.8664 C   0  0  0  0  0  0  0  0  0  0  0  0
    5.1300    0.8653   34.6164 C   0  0  0  0  0  0  0  0  0  0  0  0
    5.3912    0.3407   35.8792 C   0  0  0  0  0  0  0  0  0  0  0  0
    4.5773   -0.6642   36.3930 C   0  0  0  0  0  0  0  0  0  0  0  0
    3.4994   -1.1413   35.6451 C   0  0  0  0  0  0  0  0  0  0  0  0
    2.6274   -2.5366   32.5616 S   0  0  0  0  0  0  0  0  0  0  0  0
    2.6084   -3.7573   33.3438 O   0  0  0  0  0  0  0  0  0  0  0  0
    3.7958   -2.1540   31.7944 O   0  0  0  0  0  0  0  0  0  0  0  0
    0.4395   -4.9387   31.3175 N   0  0  0  0  0  0  0  0  0  0  0  0
   -0.4306   -4.9953   32.3702 C   0  0  0  0  0  0  0  0  0  0  0  0
   -1.0265   -6.1683   32.4002 N   0  0  0  0  0  0  0  0  0  0  0  0
   -0.5267   -6.9216   31.3636 N   0  0  0  0  0  0  0  0  0  0  0  0
    0.3645   -6.1854   30.7374 C   0  0  0  0  0  0  0  0  0  0  0  0
    1.2206   -6.4454   29.6413 C   0  0  0  0  0  0  0  0  0  0  0  0
    0.0659   -5.0892   22.8500 H   0  0  0  0  0  0  0  0  0  0  0  0
   -2.1033   -6.3467   24.0556 H   0  0  0  0  0  0  0  0  0  0  0  0
    3.0894   -3.8014   24.8041 H   0  0  0  0  0  0  0  0  0  0  0  0
    3.0174   -3.7195   26.4572 H   0  0  0  0  0  0  0  0  0  0  0  0
    5.6256   -2.8446   26.2984 H   0  0  0  0  0  0  0  0  0  0  0  0
    7.7324   -4.2452   27.0375 H   0  0  0  0  0  0  0  0  0  0  0  0
    4.1104   -7.9196   26.6540 H   0  0  0  0  0  0  0  0  0  0  0  0
    3.6387   -7.3895   25.0377 H   0  0  0  0  0  0  0  0  0  0  0  0
    2.0695   -7.1063   26.8742 H   0  0  0  0  0  0  0  0  0  0  0  0
    3.7375   -5.0979   28.1390 H   0  0  0  0  0  0  0  0  0  0  0  0
    2.7290   -3.4321   29.3552 H   0  0  0  0  0  0  0  0  0  0  0  0
    0.0274   -1.3835   30.3754 H   0  0  0  0  0  0  0  0  0  0  0  0
    1.6277   -1.4802   29.6386 H   0  0  0  0  0  0  0  0  0  0  0  0
    0.9501    0.7086   30.8362 H   0  0  0  0  0  0  0  0  0  0  0  0
    2.5568    0.0874   31.1304 H   0  0  0  0  0  0  0  0  0  0  0  0
    1.3138    0.8601   33.2218 H   0  0  0  0  0  0  0  0  0  0  0  0
    0.1388   -0.3972   32.9249 H   0  0  0  0  0  0  0  0  0  0  0  0
    1.3464   -1.6335   34.3122 H   0  0  0  0  0  0  0  0  0  0  0  0
    3.8910    0.8134   32.8787 H   0  0  0  0  0  0  0  0  0  0  0  0
    5.7730    1.6422   34.2099 H   0  0  0  0  0  0  0  0  0  0  0  0
    6.2334    0.7091   36.4592 H   0  0  0  0  0  0  0  0  0  0  0  0
    4.7843   -1.0821   37.3752 H   0  0  0  0  0  0  0  0  0  0  0  0
    2.8860   -1.9358   36.0686 H   0  0  0  0  0  0  0  0  0  0  0  0
   -0.5901   -4.1795   33.0598 H   0  0  0  0  0  0  0  0  0  0  0  0
    1.2387   -7.4698   29.2937 H   0  0  0  0  0  0  0  0  0  0  0  0
  1  2  2  0
  2  3  1  0
  3  4  1  0
  3  5  1  0
  2  6  1  0
  6  7  1  0
  7  8  1  0
  8  9  1  0
  9 10  2  0
 10 11  1  0
 11 12  1  0
 12 13  1  0
 13 14  1  0
 14 15  1  0
 15 16  1  0
 16 17  1  0
 17 18  2  0
 18 19  1  0
 19 20  1  0
 20 21  1  0
 21 22  1  0
 22 23  1  0
 23 24  1  0
 24 25  2  0
 25 26  1  0
 26 27  2  0
 27 28  1  0
 28 29  2  0
 23 30  1  0
 30 31  2  0
 30 32  2  0
 18 33  1  0
 33 34  1  0
 34 35  2  0
 35 36  1  0
 36 37  2  0
 37 38  1  0
 14  6  1  0
 38 16  2  0
 12  8  2  0
 30 19  1  0
 37 33  1  0
 29 24  1  0
  3 39  1  0
  4 40  1  0
  7 41  1  0
  7 42  1  0
  9 43  1  0
 10 44  1  0
 13 45  1  0
 13 46  1  0
 14 47  1  0
 15 48  1  0
 17 49  1  0
 20 50  1  0
 20 51  1  0
 21 52  1  0
 21 53  1  0
 22 54  1  0
 22 55  1  0
 23 56  1  0
 25 57  1  0
 26 58  1  0
 27 59  1  0
 28 60  1  0
 29 61  1  0
 34 62  1  0
 38 63  1  0
M  END
>  <Energy>  (492) 
319.77633140400508

>  <compound_id>  (492) 
2647

>  <target_id>  (492) 
1

>  <reference_id>  (492) 
135

>  <inspiration_ids>  (492) 
[177, 135]

>  <energy_score>  (492) 
147.5971910839629

>  <distance_score>  (492) 
5.531751235784453

>  <path>  (492) 
/opt/xchem-fragalysis-2/maxwin/BulkDock/SCRATCH/505736/C2647-P135/C2647-P135.minimised.mol

>  <scratch_subdir>  (492) 
/opt/xchem-fragalysis-2/maxwin/BulkDock/SCRATCH/505736/C2647-P135

>  <fragmenstein_runtime>  (492) 
26.516366004943848

>  <fragmenstein_outcome>  (492) 
too moved

>  <fragmenstein_mode>  (492) 
expansion

>  <fragmenstein_error>  (492) 


$$$$
C2647-P177
     RDKit          3D

 63 68  0  0  0  0  0  0  0  0999 V2000
    1.1615   -4.8971   22.7014 O   0  0  0  0  0  0  0  0  0  0  0  0
    1.2663   -3.7450   22.4916 C   0  0  0  0  0  0  0  0  0  0  0  0
    1.0131   -3.4475   20.6781 C   0  0  0  0  0  0  0  0  0  0  0  0
    1.3405   -1.3349   19.4246 S   0  0  0  0  0  0  0  0  0  0  0  0
    1.0057   -2.4278   18.4586 Cl  0  0  0  0  0  0  0  0  0  0  0  0
    1.4623   -2.7496   23.9229 N   0  0  0  0  0  0  0  0  0  0  0  0
    3.0748   -2.5481   24.3195 C   0  0  0  0  0  0  0  0  0  0  0  0
    3.9825   -3.2033   25.3567 C   0  0  0  0  0  0  0  0  0  0  0  0
    5.3275   -2.8604   25.6510 C   0  0  0  0  0  0  0  0  0  0  0  0
    5.9237   -3.6994   26.5678 C   0  0  0  0  0  0  0  0  0  0  0  0
    4.7915   -4.8297   27.1683 S   0  0  0  0  0  0  0  0  0  0  0  0
    3.5719   -4.0842   26.2853 C   0  0  0  0  0  0  0  0  0  0  0  0
    2.1611   -4.3710   26.2616 C   0  0  0  0  0  0  0  0  0  0  0  0
    1.4116   -3.1070   25.5796 C   0  0  0  0  0  0  0  0  0  0  0  0
    0.1255   -2.8455   26.2690 N   0  0  0  0  0  0  0  0  0  0  0  0
   -0.0346   -2.6592   27.6769 C   0  0  0  0  0  0  0  0  0  0  0  0
    1.1094   -2.8035   28.6252 C   0  0  0  0  0  0  0  0  0  0  0  0
    0.9184   -3.1140   29.9303 C   0  0  0  0  0  0  0  0  0  0  0  0
    2.0791   -3.2724   30.7522 N   0  0  0  0  0  0  0  0  0  0  0  0
    3.3625   -3.7810   30.2954 C   0  0  0  0  0  0  0  0  0  0  0  0
    4.3602   -2.6350   30.1932 C   0  0  0  0  0  0  0  0  0  0  0  0
    4.2186   -1.6013   31.3225 C   0  0  0  0  0  0  0  0  0  0  0  0
    3.7126   -2.2254   32.6293 C   0  0  0  0  0  0  0  0  0  0  0  0
    3.6729   -1.3224   33.8372 C   0  0  0  0  0  0  0  0  0  0  0  0
    3.3555    0.0404   33.7383 C   0  0  0  0  0  0  0  0  0  0  0  0
    3.2543    0.8280   34.8830 C   0  0  0  0  0  0  0  0  0  0  0  0
    3.4693    0.2659   36.1381 C   0  0  0  0  0  0  0  0  0  0  0  0
    3.7827   -1.0856   36.2528 C   0  0  0  0  0  0  0  0  0  0  0  0
    3.8823   -1.8771   35.1106 C   0  0  0  0  0  0  0  0  0  0  0  0
    2.0267   -2.8554   32.3990 S   0  0  0  0  0  0  0  0  0  0  0  0
    1.9026   -4.1055   33.1237 O   0  0  0  0  0  0  0  0  0  0  0  0
    1.0656   -1.7847   32.5464 O   0  0  0  0  0  0  0  0  0  0  0  0
   -0.3852   -3.1457   30.4009 N   0  0  0  0  0  0  0  0  0  0  0  0
   -0.9608   -3.5965   31.5585 C   0  0  0  0  0  0  0  0  0  0  0  0
   -2.2246   -3.2566   31.5965 N   0  0  0  0  0  0  0  0  0  0  0  0
   -2.4930   -2.6132   30.4252 N   0  0  0  0  0  0  0  0  0  0  0  0
   -1.4287   -2.6421   29.6557 C   0  0  0  0  0  0  0  0  0  0  0  0
   -1.2193   -2.3721   28.2642 C   0  0  0  0  0  0  0  0  0  0  0  0
    0.5095   -4.3291   20.2766 H   0  0  0  0  0  0  0  0  0  0  0  0
    0.0806   -1.2632   18.9928 H   0  0  0  0  0  0  0  0  0  0  0  0
    3.7241   -2.5302   23.5049 H   0  0  0  0  0  0  0  0  0  0  0  0
    3.0699   -1.5665   24.8076 H   0  0  0  0  0  0  0  0  0  0  0  0
    5.8322   -2.0523   25.1629 H   0  0  0  0  0  0  0  0  0  0  0  0
    6.9553   -3.7041   26.8948 H   0  0  0  0  0  0  0  0  0  0  0  0
    1.7638   -4.6640   27.2329 H   0  0  0  0  0  0  0  0  0  0  0  0
    2.2211   -5.2672   25.6915 H   0  0  0  0  0  0  0  0  0  0  0  0
    1.8754   -2.2136   26.0225 H   0  0  0  0  0  0  0  0  0  0  0  0
   -0.7270   -2.9687   25.7316 H   0  0  0  0  0  0  0  0  0  0  0  0
    2.0992   -2.6069   28.2381 H   0  0  0  0  0  0  0  0  0  0  0  0
    3.2544   -4.3251   29.3616 H   0  0  0  0  0  0  0  0  0  0  0  0
    3.7309   -4.5026   31.0311 H   0  0  0  0  0  0  0  0  0  0  0  0
    5.3747   -3.0514   30.2012 H   0  0  0  0  0  0  0  0  0  0  0  0
    4.2498   -2.1156   29.2340 H   0  0  0  0  0  0  0  0  0  0  0  0
    3.5255   -0.8217   30.9810 H   0  0  0  0  0  0  0  0  0  0  0  0
    5.1858   -1.1081   31.4784 H   0  0  0  0  0  0  0  0  0  0  0  0
    4.3433   -3.0945   32.8579 H   0  0  0  0  0  0  0  0  0  0  0  0
    3.1459    0.5061   32.7784 H   0  0  0  0  0  0  0  0  0  0  0  0
    2.9930    1.8798   34.7979 H   0  0  0  0  0  0  0  0  0  0  0  0
    3.3815    0.8806   37.0304 H   0  0  0  0  0  0  0  0  0  0  0  0
    3.9369   -1.5245   37.2353 H   0  0  0  0  0  0  0  0  0  0  0  0
    4.1044   -2.9361   35.2290 H   0  0  0  0  0  0  0  0  0  0  0  0
   -0.4463   -4.1472   32.3303 H   0  0  0  0  0  0  0  0  0  0  0  0
   -2.0908   -2.1199   27.6753 H   0  0  0  0  0  0  0  0  0  0  0  0
  1  2  2  0
  2  3  1  0
  3  4  1  0
  3  5  1  0
  2  6  1  0
  6  7  1  0
  7  8  1  0
  8  9  1  0
  9 10  2  0
 10 11  1  0
 11 12  1  0
 12 13  1  0
 13 14  1  0
 14 15  1  0
 15 16  1  0
 16 17  1  0
 17 18  2  0
 18 19  1  0
 19 20  1  0
 20 21  1  0
 21 22  1  0
 22 23  1  0
 23 24  1  0
 24 25  2  0
 25 26  1  0
 26 27  2  0
 27 28  1  0
 28 29  2  0
 23 30  1  0
 30 31  2  0
 30 32  2  0
 18 33  1  0
 33 34  1  0
 34 35  2  0
 35 36  1  0
 36 37  2  0
 37 38  1  0
 14  6  1  0
 38 16  2  0
 12  8  2  0
 30 19  1  0
 37 33  1  0
 29 24  1  0
  3 39  1  0
  4 40  1  0
  7 41  1  0
  7 42  1  0
  9 43  1  0
 10 44  1  0
 13 45  1  0
 13 46  1  0
 14 47  1  0
 15 48  1  0
 17 49  1  0
 20 50  1  0
 20 51  1  0
 21 52  1  0
 21 53  1  0
 22 54  1  0
 22 55  1  0
 23 56  1  0
 25 57  1  0
 26 58  1  0
 27 59  1  0
 28 60  1  0
 29 61  1  0
 34 62  1  0
 38 63  1  0
M  END
>  <Energy>  (493) 
694.09868962497558

>  <compound_id>  (493) 
2647

>  <target_id>  (493) 
1

>  <reference_id>  (493) 
177

>  <inspiration_ids>  (493) 
[177, 136]

>  <energy_score>  (493) 
525.8007779142262

>  <distance_score>  (493) 
5.259732081685137

>  <path>  (493) 
/opt/xchem-fragalysis-2/maxwin/BulkDock/SCRATCH/505736/C2647-P177/C2647-P177.minimised.mol

>  <scratch_subdir>  (493) 
/opt/xchem-fragalysis-2/maxwin/BulkDock/SCRATCH/505736/C2647-P177

>  <fragmenstein_runtime>  (493) 
21.300926446914673

>  <fragmenstein_outcome>  (493) 
too moved

>  <fragmenstein_mode>  (493) 
expansion

>  <fragmenstein_error>  (493) 


$$$$
C2647-P136
     RDKit          3D

 63 68  0  0  0  0  0  0  0  0999 V2000
    0.0004   -5.0981   24.1339 O   0  0  0  0  0  0  0  0  0  0  0  0
    1.1185   -4.6294   24.0998 C   0  0  0  0  0  0  0  0  0  0  0  0
    1.5804   -3.9353   22.7736 C   0  0  0  0  0  0  0  0  0  0  0  0
    1.0725   -4.8670   21.4285 S   0  0  0  0  0  0  0  0  0  0  0  0
    0.4750   -2.6050   22.5192 Cl  0  0  0  0  0  0  0  0  0  0  0  0
    2.3474   -4.4835   25.5033 N   0  0  0  0  0  0  0  0  0  0  0  0
    3.3354   -5.8516   25.5917 C   0  0  0  0  0  0  0  0  0  0  0  0
    4.6438   -5.5211   26.2189 C   0  0  0  0  0  0  0  0  0  0  0  0
    5.9597   -5.8308   25.7823 C   0  0  0  0  0  0  0  0  0  0  0  0
    6.9130   -5.4195   26.6929 C   0  0  0  0  0  0  0  0  0  0  0  0
    6.2183   -4.6669   28.0612 S   0  0  0  0  0  0  0  0  0  0  0  0
    4.6724   -4.8905   27.4250 C   0  0  0  0  0  0  0  0  0  0  0  0
    3.4443   -4.4247   28.0600 C   0  0  0  0  0  0  0  0  0  0  0  0
    2.1649   -4.8436   27.2046 C   0  0  0  0  0  0  0  0  0  0  0  0
    1.2356   -3.8144   27.6814 N   0  0  0  0  0  0  0  0  0  0  0  0
    0.4729   -3.4842   28.8033 C   0  0  0  0  0  0  0  0  0  0  0  0
    0.3561   -4.3159   30.0101 C   0  0  0  0  0  0  0  0  0  0  0  0
   -0.3353   -3.8535   31.0847 C   0  0  0  0  0  0  0  0  0  0  0  0
   -0.3285   -4.6389   32.2786 N   0  0  0  0  0  0  0  0  0  0  0  0
   -0.5552   -6.0756   32.3281 C   0  0  0  0  0  0  0  0  0  0  0  0
    0.7580   -6.7622   32.6328 C   0  0  0  0  0  0  0  0  0  0  0  0
    1.4244   -6.3255   33.9387 C   0  0  0  0  0  0  0  0  0  0  0  0
    1.5922   -4.8194   34.1858 C   0  0  0  0  0  0  0  0  0  0  0  0
    2.8095   -4.1126   33.6259 C   0  0  0  0  0  0  0  0  0  0  0  0
    3.2302   -4.2207   32.2976 C   0  0  0  0  0  0  0  0  0  0  0  0
    4.2954   -3.4497   31.8238 C   0  0  0  0  0  0  0  0  0  0  0  0
    4.9631   -2.5700   32.6707 C   0  0  0  0  0  0  0  0  0  0  0  0
    4.5717   -2.4611   33.9980 C   0  0  0  0  0  0  0  0  0  0  0  0
    3.5056   -3.2246   34.4703 C   0  0  0  0  0  0  0  0  0  0  0  0
    0.1151   -3.8935   33.7503 S   0  0  0  0  0  0  0  0  0  0  0  0
   -0.8864   -4.2438   34.7314 O   0  0  0  0  0  0  0  0  0  0  0  0
    0.4478   -2.5060   33.5132 O   0  0  0  0  0  0  0  0  0  0  0  0
   -1.0106   -2.6300   30.9906 N   0  0  0  0  0  0  0  0  0  0  0  0
   -1.8733   -1.9712   31.8291 C   0  0  0  0  0  0  0  0  0  0  0  0
   -2.2505   -0.8319   31.2932 N   0  0  0  0  0  0  0  0  0  0  0  0
   -1.6575   -0.7377   30.0569 N   0  0  0  0  0  0  0  0  0  0  0  0
   -0.9448   -1.8273   29.8727 C   0  0  0  0  0  0  0  0  0  0  0  0
   -0.1656   -2.2837   28.7860 C   0  0  0  0  0  0  0  0  0  0  0  0
    2.5295   -3.4311   22.8721 H   0  0  0  0  0  0  0  0  0  0  0  0
    0.5792   -5.8289   22.1977 H   0  0  0  0  0  0  0  0  0  0  0  0
    2.8423   -6.6261   26.1927 H   0  0  0  0  0  0  0  0  0  0  0  0
    3.5233   -6.5288   24.7719 H   0  0  0  0  0  0  0  0  0  0  0  0
    6.2195   -6.3246   24.8525 H   0  0  0  0  0  0  0  0  0  0  0  0
    7.9880   -5.5129   26.6075 H   0  0  0  0  0  0  0  0  0  0  0  0
    3.5077   -3.3322   28.1646 H   0  0  0  0  0  0  0  0  0  0  0  0
    3.3410   -4.8429   29.0682 H   0  0  0  0  0  0  0  0  0  0  0  0
    1.8748   -5.8455   27.4780 H   0  0  0  0  0  0  0  0  0  0  0  0
    1.5350   -2.9223   27.2718 H   0  0  0  0  0  0  0  0  0  0  0  0
    0.8831   -5.2579   30.0096 H   0  0  0  0  0  0  0  0  0  0  0  0
   -0.9602   -6.4460   31.3803 H   0  0  0  0  0  0  0  0  0  0  0  0
   -1.3044   -6.3118   33.0919 H   0  0  0  0  0  0  0  0  0  0  0  0
    0.5374   -7.8277   32.6988 H   0  0  0  0  0  0  0  0  0  0  0  0
    1.4520   -6.6265   31.8017 H   0  0  0  0  0  0  0  0  0  0  0  0
    2.3944   -6.8259   34.0401 H   0  0  0  0  0  0  0  0  0  0  0  0
    0.7987   -6.7216   34.7513 H   0  0  0  0  0  0  0  0  0  0  0  0
    1.6494   -4.7169   35.2797 H   0  0  0  0  0  0  0  0  0  0  0  0
    2.7295   -4.8770   31.5999 H   0  0  0  0  0  0  0  0  0  0  0  0
    4.6088   -3.5231   30.7865 H   0  0  0  0  0  0  0  0  0  0  0  0
    5.7855   -1.9670   32.2938 H   0  0  0  0  0  0  0  0  0  0  0  0
    5.0825   -1.7683   34.6621 H   0  0  0  0  0  0  0  0  0  0  0  0
    3.2000   -3.0881   35.5071 H   0  0  0  0  0  0  0  0  0  0  0  0
   -2.1832   -2.3456   32.7947 H   0  0  0  0  0  0  0  0  0  0  0  0
   -0.1247   -1.6244   27.9245 H   0  0  0  0  0  0  0  0  0  0  0  0
  1  2  2  0
  2  3  1  0
  3  4  1  0
  3  5  1  0
  2  6  1  0
  6  7  1  0
  7  8  1  0
  8  9  1  0
  9 10  2  0
 10 11  1  0
 11 12  1  0
 12 13  1  0
 13 14  1  0
 14 15  1  0
 15 16  1  0
 16 17  1  0
 17 18  2  0
 18 19  1  0
 19 20  1  0
 20 21  1  0
 21 22  1  0
 22 23  1  0
 23 24  1  0
 24 25  2  0
 25 26  1  0
 26 27  2  0
 27 28  1  0
 28 29  2  0
 23 30  1  0
 30 31  2  0
 30 32  2  0
 18 33  1  0
 33 34  1  0
 34 35  2  0
 35 36  1  0
 36 37  2  0
 37 38  1  0
 14  6  1  0
 38 16  2  0
 12  8  2  0
 30 19  1  0
 37 33  1  0
 29 24  1  0
  3 39  1  0
  4 40  1  0
  7 41  1  0
  7 42  1  0
  9 43  1  0
 10 44  1  0
 13 45  1  0
 13 46  1  0
 14 47  1  0
 15 48  1  0
 17 49  1  0
 20 50  1  0
 20 51  1  0
 21 52  1  0
 21 53  1  0
 22 54  1  0
 22 55  1  0
 23 56  1  0
 25 57  1  0
 26 58  1  0
 27 59  1  0
 28 60  1  0
 29 61  1  0
 34 62  1  0
 38 63  1  0
M  END
>  <Energy>  (494) 
272.31422129862165

>  <compound_id>  (494) 
2647

>  <target_id>  (494) 
1

>  <reference_id>  (494) 
136

>  <inspiration_ids>  (494) 
[177, 136]

>  <energy_score>  (494) 
104.01630958788519

>  <distance_score>  (494) 
5.049848999434294

>  <path>  (494) 
/opt/xchem-fragalysis-2/maxwin/BulkDock/SCRATCH/505736/C2647-P136/C2647-P136.minimised.mol

>  <scratch_subdir>  (494) 
/opt/xchem-fragalysis-2/maxwin/BulkDock/SCRATCH/505736/C2647-P136

>  <fragmenstein_runtime>  (494) 
18.151758670806885

>  <fragmenstein_outcome>  (494) 
too moved

>  <fragmenstein_mode>  (494) 
expansion

>  <fragmenstein_error>  (494) 


$$$$
C2650-P177
     RDKit          3D

 48 52  0  0  0  0  0  0  0  0999 V2000
   -1.8217    2.1753   28.3177 N   0  0  0  0  0  0  0  0  0  0  0  0
   -0.5936    2.1901   28.8706 C   0  0  0  0  0  0  0  0  0  0  0  0
   -0.0145    3.1853   29.5071 N   0  0  0  0  0  0  0  0  0  0  0  0
    0.9896    2.6666   30.2901 N   0  0  0  0  0  0  0  0  0  0  0  0
    1.0392    1.3774   30.0480 C   0  0  0  0  0  0  0  0  0  0  0  0
    1.6502    0.2996   30.7297 C   0  0  0  0  0  0  0  0  0  0  0  0
    1.4571   -0.9566   30.2734 C   0  0  0  0  0  0  0  0  0  0  0  0
    1.5796   -2.0610   31.1194 N   0  0  0  0  0  0  0  0  0  0  0  0
    0.4071   -2.4453   31.9529 C   0  0  0  0  0  0  0  0  0  0  0  0
   -0.5392   -1.3288   32.5232 C   0  0  0  0  0  0  0  0  0  0  0  0
    0.1056   -0.8497   33.7540 C   0  0  0  0  0  0  0  0  0  0  0  0
   -0.3066    0.5112   34.6514 S   0  0  0  0  0  0  0  0  0  0  0  0
    0.9836    0.2052   35.7453 C   0  0  0  0  0  0  0  0  0  0  0  0
    1.6973   -0.9291   35.4043 C   0  0  0  0  0  0  0  0  0  0  0  0
    1.1665   -1.5565   34.2451 C   0  0  0  0  0  0  0  0  0  0  0  0
    1.6424   -2.7745   33.5096 C   0  0  0  0  0  0  0  0  0  0  0  0
    0.5597   -3.6643   32.8381 N   0  0  0  0  0  0  0  0  0  0  0  0
    1.0947   -4.9528   32.5595 C   0  0  0  0  0  0  0  0  0  0  0  0
    1.6471   -5.3758   31.5764 O   0  0  0  0  0  0  0  0  0  0  0  0
    0.7606   -5.8770   33.7469 C   0  0  0  0  0  0  0  0  0  0  0  0
   -0.5890   -6.9715   33.2123 S   0  0  0  0  0  0  0  0  0  0  0  0
    2.2085   -6.8179   34.1861 Cl  0  0  0  0  0  0  0  0  0  0  0  0
    0.9140   -1.1803   28.9102 C   0  0  0  0  0  0  0  0  0  0  0  0
    1.2293   -2.4167   28.1673 C   0  0  0  0  0  0  0  0  0  0  0  0
    2.2057   -2.4087   27.1725 C   0  0  0  0  0  0  0  0  0  0  0  0
    2.7921   -3.5415   26.7158 N   0  0  0  0  0  0  0  0  0  0  0  0
    2.3772   -4.6851   27.2985 C   0  0  0  0  0  0  0  0  0  0  0  0
    1.3825   -4.7058   28.2597 C   0  0  0  0  0  0  0  0  0  0  0  0
    0.7946   -3.5780   28.7242 N   0  0  0  0  0  0  0  0  0  0  0  0
    0.1742   -0.1867   28.3749 C   0  0  0  0  0  0  0  0  0  0  0  0
    0.1826    1.0594   29.0054 N   0  0  0  0  0  0  0  0  0  0  0  0
   -2.4749    2.9142   28.5916 H   0  0  0  0  0  0  0  0  0  0  0  0
   -2.2746    1.2991   28.0984 H   0  0  0  0  0  0  0  0  0  0  0  0
    2.0573    0.4915   31.7160 H   0  0  0  0  0  0  0  0  0  0  0  0
    1.7621   -2.8924   30.5377 H   0  0  0  0  0  0  0  0  0  0  0  0
   -0.2581   -2.8859   31.1917 H   0  0  0  0  0  0  0  0  0  0  0  0
   -1.5080   -1.7773   32.7786 H   0  0  0  0  0  0  0  0  0  0  0  0
   -0.7294   -0.5255   31.8080 H   0  0  0  0  0  0  0  0  0  0  0  0
    1.1588    0.8758   36.5757 H   0  0  0  0  0  0  0  0  0  0  0  0
    2.5554   -1.2768   35.9672 H   0  0  0  0  0  0  0  0  0  0  0  0
    2.5831   -2.6594   32.9514 H   0  0  0  0  0  0  0  0  0  0  0  0
    1.9964   -3.4310   34.3237 H   0  0  0  0  0  0  0  0  0  0  0  0
    0.4457   -5.3165   34.6312 H   0  0  0  0  0  0  0  0  0  0  0  0
   -0.0124   -7.3340   32.0565 H   0  0  0  0  0  0  0  0  0  0  0  0
    2.6066   -1.4860   26.7638 H   0  0  0  0  0  0  0  0  0  0  0  0
    2.8684   -5.5921   26.9635 H   0  0  0  0  0  0  0  0  0  0  0  0
    1.0461   -5.6359   28.7024 H   0  0  0  0  0  0  0  0  0  0  0  0
   -0.3626   -0.2603   27.4400 H   0  0  0  0  0  0  0  0  0  0  0  0
  1  2  1  0
  2  3  2  0
  3  4  1  0
  4  5  2  0
  5  6  1  0
  6  7  2  0
  7  8  1  0
  8  9  1  0
  9 10  1  0
 10 11  1  0
 11 12  1  0
 12 13  1  0
 13 14  2  0
 14 15  1  0
 15 16  1  0
 16 17  1  0
 17 18  1  0
 18 19  2  0
 18 20  1  0
 20 21  1  0
 20 22  1  0
  7 23  1  0
 23 24  1  0
 24 25  2  0
 25 26  1  0
 26 27  2  0
 27 28  1  0
 28 29  2  0
 23 30  2  0
 30 31  1  0
 31  2  1  0
 31  5  1  0
 17  9  1  0
 29 24  1  0
 15 11  2  0
  1 32  1  0
  1 33  1  0
  6 34  1  0
  8 35  1  0
  9 36  1  0
 10 37  1  0
 10 38  1  0
 13 39  1  0
 14 40  1  0
 16 41  1  0
 16 42  1  0
 20 43  1  0
 21 44  1  0
 25 45  1  0
 27 46  1  0
 28 47  1  0
 30 48  1  0
M  END
>  <Energy>  (495) 
204.33443058681871

>  <compound_id>  (495) 
2650

>  <target_id>  (495) 
1

>  <reference_id>  (495) 
177

>  <inspiration_ids>  (495) 
[177, 142]

>  <energy_score>  (495) 
-5.039960598115158

>  <distance_score>  (495) 
2.364387392754262

>  <path>  (495) 
/opt/xchem-fragalysis-2/maxwin/BulkDock/SCRATCH/505736/C2650-P177/C2650-P177.minimised.mol

>  <scratch_subdir>  (495) 
/opt/xchem-fragalysis-2/maxwin/BulkDock/SCRATCH/505736/C2650-P177

>  <fragmenstein_runtime>  (495) 
11.866770029067993

>  <fragmenstein_outcome>  (495) 
too moved

>  <fragmenstein_mode>  (495) 
expansion

>  <fragmenstein_error>  (495) 


$$$$
C2650-P142
     RDKit          3D

 48 52  0  0  0  0  0  0  0  0999 V2000
   -2.1856    1.8586   26.1953 N   0  0  0  0  0  0  0  0  0  0  0  0
   -1.4077    2.1661   27.2572 C   0  0  0  0  0  0  0  0  0  0  0  0
   -1.0606    3.3657   27.6698 N   0  0  0  0  0  0  0  0  0  0  0  0
   -0.3220    3.2357   28.8245 N   0  0  0  0  0  0  0  0  0  0  0  0
   -0.2240    1.9539   29.0901 C   0  0  0  0  0  0  0  0  0  0  0  0
    0.3240    1.2512   30.1986 C   0  0  0  0  0  0  0  0  0  0  0  0
    0.3721   -0.0960   30.1961 C   0  0  0  0  0  0  0  0  0  0  0  0
    0.7437   -0.9471   31.2223 N   0  0  0  0  0  0  0  0  0  0  0  0
    1.2109   -0.7889   32.5890 C   0  0  0  0  0  0  0  0  0  0  0  0
    2.2229    0.3426   32.9601 C   0  0  0  0  0  0  0  0  0  0  0  0
    3.5775   -0.1924   32.7669 C   0  0  0  0  0  0  0  0  0  0  0  0
    5.0276    0.6517   32.8967 S   0  0  0  0  0  0  0  0  0  0  0  0
    5.9157   -0.7643   32.4964 C   0  0  0  0  0  0  0  0  0  0  0  0
    5.0893   -1.8502   32.2755 C   0  0  0  0  0  0  0  0  0  0  0  0
    3.7198   -1.5112   32.4574 C   0  0  0  0  0  0  0  0  0  0  0  0
    2.4969   -2.3471   32.2888 C   0  0  0  0  0  0  0  0  0  0  0  0
    1.3440   -2.1525   33.3181 N   0  0  0  0  0  0  0  0  0  0  0  0
    0.4851   -3.3028   33.3137 C   0  0  0  0  0  0  0  0  0  0  0  0
   -0.5081   -3.5358   32.6722 O   0  0  0  0  0  0  0  0  0  0  0  0
    1.0224   -4.3661   34.2979 C   0  0  0  0  0  0  0  0  0  0  0  0
   -0.2906   -4.9389   35.4110 S   0  0  0  0  0  0  0  0  0  0  0  0
    1.6133   -5.7566   33.3282 Cl  0  0  0  0  0  0  0  0  0  0  0  0
   -0.0479   -0.8249   28.9613 C   0  0  0  0  0  0  0  0  0  0  0  0
    0.3728   -2.2290   28.7720 C   0  0  0  0  0  0  0  0  0  0  0  0
    1.6398   -2.5051   28.2530 C   0  0  0  0  0  0  0  0  0  0  0  0
    2.2462   -3.7174   28.3678 N   0  0  0  0  0  0  0  0  0  0  0  0
    1.5401   -4.6317   29.0650 C   0  0  0  0  0  0  0  0  0  0  0  0
    0.2874   -4.3658   29.5939 C   0  0  0  0  0  0  0  0  0  0  0  0
   -0.3148   -3.1637   29.4718 N   0  0  0  0  0  0  0  0  0  0  0  0
   -0.7234   -0.1649   28.0000 C   0  0  0  0  0  0  0  0  0  0  0  0
   -0.8297    1.2195   28.0847 N   0  0  0  0  0  0  0  0  0  0  0  0
   -2.7489    2.6430   25.8607 H   0  0  0  0  0  0  0  0  0  0  0  0
   -2.7682    1.0266   26.2534 H   0  0  0  0  0  0  0  0  0  0  0  0
    0.6077    1.8523   31.0485 H   0  0  0  0  0  0  0  0  0  0  0  0
    0.1410   -1.7857   31.1747 H   0  0  0  0  0  0  0  0  0  0  0  0
    0.2969   -0.4238   33.0838 H   0  0  0  0  0  0  0  0  0  0  0  0
    2.0936    0.5995   34.0193 H   0  0  0  0  0  0  0  0  0  0  0  0
    2.0753    1.2508   32.3769 H   0  0  0  0  0  0  0  0  0  0  0  0
    6.9949   -0.7256   32.4354 H   0  0  0  0  0  0  0  0  0  0  0  0
    5.4614   -2.8288   31.9973 H   0  0  0  0  0  0  0  0  0  0  0  0
    2.2051   -2.5426   31.2513 H   0  0  0  0  0  0  0  0  0  0  0  0
    2.8658   -3.3495   32.5560 H   0  0  0  0  0  0  0  0  0  0  0  0
    1.8631   -3.9886   34.8863 H   0  0  0  0  0  0  0  0  0  0  0  0
   -1.2955   -4.8347   34.5185 H   0  0  0  0  0  0  0  0  0  0  0  0
    2.2322   -1.7295   27.7769 H   0  0  0  0  0  0  0  0  0  0  0  0
    2.0077   -5.6000   29.1880 H   0  0  0  0  0  0  0  0  0  0  0  0
   -0.2634   -5.1132   30.1528 H   0  0  0  0  0  0  0  0  0  0  0  0
   -1.1195   -0.6330   27.1105 H   0  0  0  0  0  0  0  0  0  0  0  0
  1  2  1  0
  2  3  2  0
  3  4  1  0
  4  5  2  0
  5  6  1  0
  6  7  2  0
  7  8  1  0
  8  9  1  0
  9 10  1  0
 10 11  1  0
 11 12  1  0
 12 13  1  0
 13 14  2  0
 14 15  1  0
 15 16  1  0
 16 17  1  0
 17 18  1  0
 18 19  2  0
 18 20  1  0
 20 21  1  0
 20 22  1  0
  7 23  1  0
 23 24  1  0
 24 25  2  0
 25 26  1  0
 26 27  2  0
 27 28  1  0
 28 29  2  0
 23 30  2  0
 30 31  1  0
 31  2  1  0
 31  5  1  0
 17  9  1  0
 29 24  1  0
 15 11  2  0
  1 32  1  0
  1 33  1  0
  6 34  1  0
  8 35  1  0
  9 36  1  0
 10 37  1  0
 10 38  1  0
 13 39  1  0
 14 40  1  0
 16 41  1  0
 16 42  1  0
 20 43  1  0
 21 44  1  0
 25 45  1  0
 27 46  1  0
 28 47  1  0
 30 48  1  0
M  END
>  <Energy>  (496) 
196.55220580328177

>  <compound_id>  (496) 
2650

>  <target_id>  (496) 
1

>  <reference_id>  (496) 
142

>  <inspiration_ids>  (496) 
[177, 142]

>  <energy_score>  (496) 
-12.822185381653185

>  <distance_score>  (496) 
2.154329773529067

>  <path>  (496) 
/opt/xchem-fragalysis-2/maxwin/BulkDock/SCRATCH/505736/C2650-P142/C2650-P142.minimised.mol

>  <scratch_subdir>  (496) 
/opt/xchem-fragalysis-2/maxwin/BulkDock/SCRATCH/505736/C2650-P142

>  <fragmenstein_runtime>  (496) 
10.598182678222656

>  <fragmenstein_outcome>  (496) 
too moved

>  <fragmenstein_mode>  (496) 
expansion

>  <fragmenstein_error>  (496) 


$$$$
C2650-P177
     RDKit          3D

 48 52  0  0  0  0  0  0  0  0999 V2000
   -1.1131   -2.9956   32.8042 N   0  0  0  0  0  0  0  0  0  0  0  0
   -0.8375   -3.5853   31.6216 C   0  0  0  0  0  0  0  0  0  0  0  0
   -0.7303   -4.8735   31.3756 N   0  0  0  0  0  0  0  0  0  0  0  0
   -0.5259   -5.0327   30.0206 N   0  0  0  0  0  0  0  0  0  0  0  0
   -0.6140   -3.8436   29.4599 C   0  0  0  0  0  0  0  0  0  0  0  0
   -0.6183   -3.4014   28.1088 C   0  0  0  0  0  0  0  0  0  0  0  0
   -0.3697   -2.1093   27.7565 C   0  0  0  0  0  0  0  0  0  0  0  0
   -0.0550   -1.6908   26.3937 N   0  0  0  0  0  0  0  0  0  0  0  0
    0.5961   -2.6457   25.3084 C   0  0  0  0  0  0  0  0  0  0  0  0
    1.5860   -3.4849   26.3623 C   0  0  0  0  0  0  0  0  0  0  0  0
    2.8971   -3.5164   25.8555 C   0  0  0  0  0  0  0  0  0  0  0  0
    4.2772   -3.5600   26.8001 S   0  0  0  0  0  0  0  0  0  0  0  0
    5.0655   -2.7104   25.5697 C   0  0  0  0  0  0  0  0  0  0  0  0
    4.2437   -2.5608   24.4609 C   0  0  0  0  0  0  0  0  0  0  0  0
    2.9713   -3.2321   24.5440 C   0  0  0  0  0  0  0  0  0  0  0  0
    1.6428   -3.4820   23.6378 C   0  0  0  0  0  0  0  0  0  0  0  0
    1.0749   -2.2410   23.5262 N   0  0  0  0  0  0  0  0  0  0  0  0
    0.0883   -2.0976   21.9711 C   0  0  0  0  0  0  0  0  0  0  0  0
   -1.0189   -2.4073   22.1790 O   0  0  0  0  0  0  0  0  0  0  0  0
    1.0119   -1.5685   19.9198 C   0  0  0  0  0  0  0  0  0  0  0  0
    1.2755    0.3759   18.6515 S   0  0  0  0  0  0  0  0  0  0  0  0
    0.0702   -1.6758   18.0800 Cl  0  0  0  0  0  0  0  0  0  0  0  0
   -0.2503   -1.1236   28.8908 C   0  0  0  0  0  0  0  0  0  0  0  0
    0.2007    0.2803   28.8070 C   0  0  0  0  0  0  0  0  0  0  0  0
    1.5287    0.5806   28.4991 C   0  0  0  0  0  0  0  0  0  0  0  0
    2.0544    1.8225   28.6342 N   0  0  0  0  0  0  0  0  0  0  0  0
    1.1931    2.7650   29.0690 C   0  0  0  0  0  0  0  0  0  0  0  0
   -0.1270    2.4782   29.3760 C   0  0  0  0  0  0  0  0  0  0  0  0
   -0.6518    1.2346   29.2692 N   0  0  0  0  0  0  0  0  0  0  0  0
   -0.4528   -1.5412   30.1676 C   0  0  0  0  0  0  0  0  0  0  0  0
   -0.6472   -2.8841   30.4416 N   0  0  0  0  0  0  0  0  0  0  0  0
   -1.5341   -2.0726   32.8270 H   0  0  0  0  0  0  0  0  0  0  0  0
   -1.5144   -3.6038   33.5224 H   0  0  0  0  0  0  0  0  0  0  0  0
   -0.7489   -4.1746   27.3647 H   0  0  0  0  0  0  0  0  0  0  0  0
    0.5410   -0.8784   26.5088 H   0  0  0  0  0  0  0  0  0  0  0  0
   -0.2951   -3.2548   25.0947 H   0  0  0  0  0  0  0  0  0  0  0  0
    1.7034   -2.9376   27.3040 H   0  0  0  0  0  0  0  0  0  0  0  0
    1.2525   -4.4759   26.6503 H   0  0  0  0  0  0  0  0  0  0  0  0
    6.0703   -2.3502   25.7176 H   0  0  0  0  0  0  0  0  0  0  0  0
    4.6284   -2.0143   23.6187 H   0  0  0  0  0  0  0  0  0  0  0  0
    0.8632   -4.1528   23.8139 H   0  0  0  0  0  0  0  0  0  0  0  0
    1.9719   -3.7652   22.6524 H   0  0  0  0  0  0  0  0  0  0  0  0
    2.0235   -1.5750   19.5935 H   0  0  0  0  0  0  0  0  0  0  0  0
    1.5031   -0.3051   17.5187 H   0  0  0  0  0  0  0  0  0  0  0  0
    2.2310   -0.1825   28.1784 H   0  0  0  0  0  0  0  0  0  0  0  0
    1.5964    3.7661   29.1667 H   0  0  0  0  0  0  0  0  0  0  0  0
   -0.8013    3.2484   29.7316 H   0  0  0  0  0  0  0  0  0  0  0  0
   -0.3843   -0.8830   31.0269 H   0  0  0  0  0  0  0  0  0  0  0  0
  1  2  1  0
  2  3  2  0
  3  4  1  0
  4  5  2  0
  5  6  1  0
  6  7  2  0
  7  8  1  0
  8  9  1  0
  9 10  1  0
 10 11  1  0
 11 12  1  0
 12 13  1  0
 13 14  2  0
 14 15  1  0
 15 16  1  0
 16 17  1  0
 17 18  1  0
 18 19  2  0
 18 20  1  0
 20 21  1  0
 20 22  1  0
  7 23  1  0
 23 24  1  0
 24 25  2  0
 25 26  1  0
 26 27  2  0
 27 28  1  0
 28 29  2  0
 23 30  2  0
 30 31  1  0
 31  2  1  0
 31  5  1  0
 17  9  1  0
 29 24  1  0
 15 11  2  0
  1 32  1  0
  1 33  1  0
  6 34  1  0
  8 35  1  0
  9 36  1  0
 10 37  1  0
 10 38  1  0
 13 39  1  0
 14 40  1  0
 16 41  1  0
 16 42  1  0
 20 43  1  0
 21 44  1  0
 25 45  1  0
 27 46  1  0
 28 47  1  0
 30 48  1  0
M  END
>  <Energy>  (497) 
725.80773986067845

>  <compound_id>  (497) 
2650

>  <target_id>  (497) 
1

>  <reference_id>  (497) 
177

>  <inspiration_ids>  (497) 
[177, 144]

>  <energy_score>  (497) 
537.0621446278312

>  <distance_score>  (497) 
5.825758526389871

>  <path>  (497) 
/opt/xchem-fragalysis-2/maxwin/BulkDock/SCRATCH/505736/C2650-P177/C2650-P177.minimised.mol

>  <scratch_subdir>  (497) 
/opt/xchem-fragalysis-2/maxwin/BulkDock/SCRATCH/505736/C2650-P177

>  <fragmenstein_runtime>  (497) 
17.041916847229004

>  <fragmenstein_outcome>  (497) 
too moved

>  <fragmenstein_mode>  (497) 
expansion

>  <fragmenstein_error>  (497) 


$$$$
C2650-P144
     RDKit          3D

 48 52  0  0  0  0  0  0  0  0999 V2000
    0.4544   -6.0035   34.2419 N   0  0  0  0  0  0  0  0  0  0  0  0
    0.0824   -6.0081   32.9406 C   0  0  0  0  0  0  0  0  0  0  0  0
   -0.7532   -6.8385   32.3570 N   0  0  0  0  0  0  0  0  0  0  0  0
   -0.8414   -6.4984   31.0282 N   0  0  0  0  0  0  0  0  0  0  0  0
   -0.0557   -5.4627   30.8257 C   0  0  0  0  0  0  0  0  0  0  0  0
    0.2740   -4.7247   29.6600 C   0  0  0  0  0  0  0  0  0  0  0  0
    1.3079   -3.8469   29.6407 C   0  0  0  0  0  0  0  0  0  0  0  0
    1.7758   -3.3446   28.4083 N   0  0  0  0  0  0  0  0  0  0  0  0
    3.1909   -3.2982   27.9513 C   0  0  0  0  0  0  0  0  0  0  0  0
    3.8891   -4.6226   28.4370 C   0  0  0  0  0  0  0  0  0  0  0  0
    5.2716   -4.5076   27.9687 C   0  0  0  0  0  0  0  0  0  0  0  0
    6.5724   -5.4393   28.4815 S   0  0  0  0  0  0  0  0  0  0  0  0
    7.6404   -4.4982   27.5286 C   0  0  0  0  0  0  0  0  0  0  0  0
    6.9820   -3.4914   26.8490 C   0  0  0  0  0  0  0  0  0  0  0  0
    5.5812   -3.5323   27.0614 C   0  0  0  0  0  0  0  0  0  0  0  0
    4.5032   -2.6329   26.5253 C   0  0  0  0  0  0  0  0  0  0  0  0
    3.0788   -3.2215   26.3812 N   0  0  0  0  0  0  0  0  0  0  0  0
    3.0745   -4.2739   25.3785 C   0  0  0  0  0  0  0  0  0  0  0  0
    3.2483   -5.4623   25.4969 O   0  0  0  0  0  0  0  0  0  0  0  0
    2.6887   -3.6277   23.6430 C   0  0  0  0  0  0  0  0  0  0  0  0
    1.3705   -3.7951   22.1247 S   0  0  0  0  0  0  0  0  0  0  0  0
    0.7868   -4.8948   23.5337 Cl  0  0  0  0  0  0  0  0  0  0  0  0
    1.9310   -3.4672   30.9482 C   0  0  0  0  0  0  0  0  0  0  0  0
    2.8855   -2.3572   31.1353 C   0  0  0  0  0  0  0  0  0  0  0  0
    4.1987   -2.5694   31.5513 C   0  0  0  0  0  0  0  0  0  0  0  0
    5.0908   -1.5634   31.7214 N   0  0  0  0  0  0  0  0  0  0  0  0
    4.6168   -0.3238   31.4677 C   0  0  0  0  0  0  0  0  0  0  0  0
    3.3140   -0.1017   31.0581 C   0  0  0  0  0  0  0  0  0  0  0  0
    2.4265   -1.1077   30.8824 N   0  0  0  0  0  0  0  0  0  0  0  0
    1.5494   -4.1261   32.0708 C   0  0  0  0  0  0  0  0  0  0  0  0
    0.5888   -5.1298   31.9972 N   0  0  0  0  0  0  0  0  0  0  0  0
    0.5432   -5.0959   34.6925 H   0  0  0  0  0  0  0  0  0  0  0  0
   -0.1384   -6.6022   34.8201 H   0  0  0  0  0  0  0  0  0  0  0  0
   -0.2774   -4.9647   28.7612 H   0  0  0  0  0  0  0  0  0  0  0  0
    1.1824   -3.6337   27.6377 H   0  0  0  0  0  0  0  0  0  0  0  0
    3.5721   -2.3903   28.4419 H   0  0  0  0  0  0  0  0  0  0  0  0
    3.8768   -4.7099   29.5247 H   0  0  0  0  0  0  0  0  0  0  0  0
    3.3991   -5.5125   28.0305 H   0  0  0  0  0  0  0  0  0  0  0  0
    8.6984   -4.7218   27.5092 H   0  0  0  0  0  0  0  0  0  0  0  0
    7.5077   -2.7873   26.2197 H   0  0  0  0  0  0  0  0  0  0  0  0
    4.7934   -2.4306   25.4816 H   0  0  0  0  0  0  0  0  0  0  0  0
    4.4957   -1.6245   26.9679 H   0  0  0  0  0  0  0  0  0  0  0  0
    2.9008   -2.6102   23.3336 H   0  0  0  0  0  0  0  0  0  0  0  0
    0.5973   -2.7926   22.5468 H   0  0  0  0  0  0  0  0  0  0  0  0
    4.5821   -3.5636   31.7554 H   0  0  0  0  0  0  0  0  0  0  0  0
    5.3170    0.4926   31.6044 H   0  0  0  0  0  0  0  0  0  0  0  0
    2.9440    0.8977   30.8585 H   0  0  0  0  0  0  0  0  0  0  0  0
    1.9432   -3.9118   33.0574 H   0  0  0  0  0  0  0  0  0  0  0  0
  1  2  1  0
  2  3  2  0
  3  4  1  0
  4  5  2  0
  5  6  1  0
  6  7  2  0
  7  8  1  0
  8  9  1  0
  9 10  1  0
 10 11  1  0
 11 12  1  0
 12 13  1  0
 13 14  2  0
 14 15  1  0
 15 16  1  0
 16 17  1  0
 17 18  1  0
 18 19  2  0
 18 20  1  0
 20 21  1  0
 20 22  1  0
  7 23  1  0
 23 24  1  0
 24 25  2  0
 25 26  1  0
 26 27  2  0
 27 28  1  0
 28 29  2  0
 23 30  2  0
 30 31  1  0
 31  2  1  0
 31  5  1  0
 17  9  1  0
 29 24  1  0
 15 11  2  0
  1 32  1  0
  1 33  1  0
  6 34  1  0
  8 35  1  0
  9 36  1  0
 10 37  1  0
 10 38  1  0
 13 39  1  0
 14 40  1  0
 16 41  1  0
 16 42  1  0
 20 43  1  0
 21 44  1  0
 25 45  1  0
 27 46  1  0
 28 47  1  0
 30 48  1  0
M  END
>  <Energy>  (498) 
384.35387654374478

>  <compound_id>  (498) 
2650

>  <target_id>  (498) 
1

>  <reference_id>  (498) 
144

>  <inspiration_ids>  (498) 
[177, 144]

>  <energy_score>  (498) 
195.60828131091978

>  <distance_score>  (498) 
5.33208953179802

>  <path>  (498) 
/opt/xchem-fragalysis-2/maxwin/BulkDock/SCRATCH/505736/C2650-P144/C2650-P144.minimised.mol

>  <scratch_subdir>  (498) 
/opt/xchem-fragalysis-2/maxwin/BulkDock/SCRATCH/505736/C2650-P144

>  <fragmenstein_runtime>  (498) 
14.401224136352539

>  <fragmenstein_outcome>  (498) 
too moved

>  <fragmenstein_mode>  (498) 
expansion

>  <fragmenstein_error>  (498) 


$$$$
C2651-P177
     RDKit          3D

 51 55  0  0  0  0  0  0  0  0999 V2000
    1.8295   -6.6617   33.1926 O   0  0  0  0  0  0  0  0  0  0  0  0
    2.0485   -5.5370   32.9425 C   0  0  0  0  0  0  0  0  0  0  0  0
    2.6333   -4.4636   33.7909 N   0  0  0  0  0  0  0  0  0  0  0  0
    2.9907   -4.4657   35.1150 C   0  0  0  0  0  0  0  0  0  0  0  0
    3.5967   -3.4776   35.9107 C   0  0  0  0  0  0  0  0  0  0  0  0
    3.7636   -3.8713   37.1783 N   0  0  0  0  0  0  0  0  0  0  0  0
    3.2435   -5.1101   37.2014 N   0  0  0  0  0  0  0  0  0  0  0  0
    2.7804   -5.5140   35.9834 C   0  0  0  0  0  0  0  0  0  0  0  0
    1.7133   -4.7376   31.6737 N   0  0  0  0  0  0  0  0  0  0  0  0
    0.9961   -5.0958   30.5464 C   0  0  0  0  0  0  0  0  0  0  0  0
    1.1987   -4.5560   29.3090 C   0  0  0  0  0  0  0  0  0  0  0  0
    0.4928   -5.1107   28.1205 C   0  0  0  0  0  0  0  0  0  0  0  0
    0.4845   -4.5500   26.8262 N   0  0  0  0  0  0  0  0  0  0  0  0
    1.5662   -3.9086   25.9586 C   0  0  0  0  0  0  0  0  0  0  0  0
    3.0124   -4.3081   26.1120 C   0  0  0  0  0  0  0  0  0  0  0  0
    3.5794   -2.9716   25.8800 C   0  0  0  0  0  0  0  0  0  0  0  0
    5.1077   -2.5554   26.4554 S   0  0  0  0  0  0  0  0  0  0  0  0
    4.6540   -0.9206   26.4907 C   0  0  0  0  0  0  0  0  0  0  0  0
    3.3794   -0.7161   25.9948 C   0  0  0  0  0  0  0  0  0  0  0  0
    2.7407   -1.9175   25.4813 C   0  0  0  0  0  0  0  0  0  0  0  0
    1.0571   -2.2133   24.9029 C   0  0  0  0  0  0  0  0  0  0  0  0
    0.9389   -3.4598   24.3352 N   0  0  0  0  0  0  0  0  0  0  0  0
    1.6407   -3.4855   22.7441 C   0  0  0  0  0  0  0  0  0  0  0  0
    2.7562   -3.7712   22.7448 O   0  0  0  0  0  0  0  0  0  0  0  0
    0.9852   -3.3368   20.8548 C   0  0  0  0  0  0  0  0  0  0  0  0
    0.9638   -2.2591   18.5490 S   0  0  0  0  0  0  0  0  0  0  0  0
    1.5006   -1.4341   19.3622 Cl  0  0  0  0  0  0  0  0  0  0  0  0
   -0.3040   -6.1901   28.2967 C   0  0  0  0  0  0  0  0  0  0  0  0
   -0.5240   -6.7591   29.5664 C   0  0  0  0  0  0  0  0  0  0  0  0
   -1.3060   -7.7371   29.9619 N   0  0  0  0  0  0  0  0  0  0  0  0
   -1.3606   -7.7134   31.3261 N   0  0  0  0  0  0  0  0  0  0  0  0
   -0.5776   -6.7389   31.7276 C   0  0  0  0  0  0  0  0  0  0  0  0
    0.0496   -6.1435   30.6571 N   0  0  0  0  0  0  0  0  0  0  0  0
    2.7583   -3.6365   33.2390 H   0  0  0  0  0  0  0  0  0  0  0  0
    3.9286   -2.4868   35.6301 H   0  0  0  0  0  0  0  0  0  0  0  0
    3.2415   -5.6205   38.0797 H   0  0  0  0  0  0  0  0  0  0  0  0
    2.3361   -6.4907   35.8539 H   0  0  0  0  0  0  0  0  0  0  0  0
    2.1127   -3.8175   31.7444 H   0  0  0  0  0  0  0  0  0  0  0  0
    1.9198   -3.7645   29.1372 H   0  0  0  0  0  0  0  0  0  0  0  0
   -0.3820   -3.9975   26.7460 H   0  0  0  0  0  0  0  0  0  0  0  0
    1.4833   -3.0585   26.6688 H   0  0  0  0  0  0  0  0  0  0  0  0
    3.2052   -4.6261   27.1439 H   0  0  0  0  0  0  0  0  0  0  0  0
    3.4121   -5.1023   25.5027 H   0  0  0  0  0  0  0  0  0  0  0  0
    5.3403   -0.1759   26.8669 H   0  0  0  0  0  0  0  0  0  0  0  0
    2.9860    0.2918   25.9786 H   0  0  0  0  0  0  0  0  0  0  0  0
    0.9668   -1.7656   23.9644 H   0  0  0  0  0  0  0  0  0  0  0  0
    0.3202   -2.0227   25.6979 H   0  0  0  0  0  0  0  0  0  0  0  0
    0.8069   -4.3261   20.4018 H   0  0  0  0  0  0  0  0  0  0  0  0
    1.9919   -2.9032   17.9569 H   0  0  0  0  0  0  0  0  0  0  0  0
   -0.8704   -6.6063   27.4717 H   0  0  0  0  0  0  0  0  0  0  0  0
   -0.4601   -6.4256   32.7530 H   0  0  0  0  0  0  0  0  0  0  0  0
  1  2  2  0
  2  3  1  0
  3  4  1  0
  4  5  1  0
  5  6  2  0
  6  7  1  0
  7  8  1  0
  2  9  1  0
  9 10  1  0
 10 11  2  0
 11 12  1  0
 12 13  1  0
 13 14  1  0
 14 15  1  0
 15 16  1  0
 16 17  1  0
 17 18  1  0
 18 19  2  0
 19 20  1  0
 20 21  1  0
 21 22  1  0
 22 23  1  0
 23 24  2  0
 23 25  1  0
 25 26  1  0
 25 27  1  0
 12 28  2  0
 28 29  1  0
 29 30  2  0
 30 31  1  0
 31 32  2  0
 32 33  1  0
  8  4  2  0
 33 10  1  0
 22 14  1  0
 33 29  1  0
 20 16  2  0
  3 34  1  0
  5 35  1  0
  7 36  1  0
  8 37  1  0
  9 38  1  0
 11 39  1  0
 13 40  1  0
 14 41  1  0
 15 42  1  0
 15 43  1  0
 18 44  1  0
 19 45  1  0
 21 46  1  0
 21 47  1  0
 25 48  1  0
 26 49  1  0
 28 50  1  0
 32 51  1  0
M  END
>  <Energy>  (499) 
740.74583169405662

>  <compound_id>  (499) 
2651

>  <target_id>  (499) 
1

>  <reference_id>  (499) 
177

>  <inspiration_ids>  (499) 
[177, 145]

>  <energy_score>  (499) 
641.3713232303717

>  <distance_score>  (499) 
4.896988058872946

>  <path>  (499) 
/opt/xchem-fragalysis-2/maxwin/BulkDock/SCRATCH/505736/C2651-P177/C2651-P177.minimised.mol

>  <scratch_subdir>  (499) 
/opt/xchem-fragalysis-2/maxwin/BulkDock/SCRATCH/505736/C2651-P177

>  <fragmenstein_runtime>  (499) 
14.996735095977783

>  <fragmenstein_outcome>  (499) 
too moved

>  <fragmenstein_mode>  (499) 
expansion

>  <fragmenstein_error>  (499) 


$$$$
C2651-P145
     RDKit          3D

 51 55  0  0  0  0  0  0  0  0999 V2000
   -0.4886   -5.2877   37.1327 O   0  0  0  0  0  0  0  0  0  0  0  0
    0.2891   -4.5709   36.6270 C   0  0  0  0  0  0  0  0  0  0  0  0
    1.4038   -3.7856   37.2294 N   0  0  0  0  0  0  0  0  0  0  0  0
    1.8811   -3.7550   38.5087 C   0  0  0  0  0  0  0  0  0  0  0  0
    3.0579   -3.1832   39.0213 C   0  0  0  0  0  0  0  0  0  0  0  0
    3.2516   -3.4904   40.3078 N   0  0  0  0  0  0  0  0  0  0  0  0
    2.1823   -4.2462   40.6198 N   0  0  0  0  0  0  0  0  0  0  0  0
    1.3286   -4.4251   39.5729 C   0  0  0  0  0  0  0  0  0  0  0  0
    0.5147   -4.2584   35.1646 N   0  0  0  0  0  0  0  0  0  0  0  0
   -0.0597   -4.7923   34.0362 C   0  0  0  0  0  0  0  0  0  0  0  0
   -0.1721   -4.1054   32.8738 C   0  0  0  0  0  0  0  0  0  0  0  0
   -0.6944   -4.7714   31.6626 C   0  0  0  0  0  0  0  0  0  0  0  0
   -1.0088   -4.0330   30.5109 N   0  0  0  0  0  0  0  0  0  0  0  0
   -0.2399   -4.3354   29.2819 C   0  0  0  0  0  0  0  0  0  0  0  0
    1.2415   -3.7862   29.4231 C   0  0  0  0  0  0  0  0  0  0  0  0
    1.1665   -2.4078   28.9301 C   0  0  0  0  0  0  0  0  0  0  0  0
    2.4091   -1.2755   28.9991 S   0  0  0  0  0  0  0  0  0  0  0  0
    1.4141   -0.1098   28.2319 C   0  0  0  0  0  0  0  0  0  0  0  0
    0.1525   -0.6032   27.9545 C   0  0  0  0  0  0  0  0  0  0  0  0
    0.0170   -1.9744   28.3215 C   0  0  0  0  0  0  0  0  0  0  0  0
   -1.1795   -2.9326   28.1082 C   0  0  0  0  0  0  0  0  0  0  0  0
   -0.7106   -4.4680   27.8155 N   0  0  0  0  0  0  0  0  0  0  0  0
    0.0696   -4.5634   26.4547 C   0  0  0  0  0  0  0  0  0  0  0  0
    1.2850   -4.4225   26.4875 O   0  0  0  0  0  0  0  0  0  0  0  0
   -0.5102   -5.0856   24.4518 C   0  0  0  0  0  0  0  0  0  0  0  0
    0.3022   -6.8624   22.9001 S   0  0  0  0  0  0  0  0  0  0  0  0
    0.8329   -3.9932   22.8939 Cl  0  0  0  0  0  0  0  0  0  0  0  0
   -0.8847   -6.1051   31.6759 C   0  0  0  0  0  0  0  0  0  0  0  0
   -0.8289   -6.8169   32.8764 C   0  0  0  0  0  0  0  0  0  0  0  0
   -1.1417   -8.0580   33.1349 N   0  0  0  0  0  0  0  0  0  0  0  0
   -0.9097   -8.2484   34.4602 N   0  0  0  0  0  0  0  0  0  0  0  0
   -0.4171   -7.1458   34.9596 C   0  0  0  0  0  0  0  0  0  0  0  0
   -0.4396   -6.1516   34.0239 N   0  0  0  0  0  0  0  0  0  0  0  0
    1.9265   -3.3410   36.5015 H   0  0  0  0  0  0  0  0  0  0  0  0
    3.8019   -2.5828   38.5153 H   0  0  0  0  0  0  0  0  0  0  0  0
    2.1040   -4.6113   41.5640 H   0  0  0  0  0  0  0  0  0  0  0  0
    0.4371   -5.0300   39.6717 H   0  0  0  0  0  0  0  0  0  0  0  0
    1.2067   -3.5364   35.0814 H   0  0  0  0  0  0  0  0  0  0  0  0
    0.1215   -3.0636   32.8022 H   0  0  0  0  0  0  0  0  0  0  0  0
   -0.9242   -3.0343   30.7206 H   0  0  0  0  0  0  0  0  0  0  0  0
   -0.0311   -5.4070   29.3985 H   0  0  0  0  0  0  0  0  0  0  0  0
    1.5865   -3.8143   30.4619 H   0  0  0  0  0  0  0  0  0  0  0  0
    1.9464   -4.3782   28.8330 H   0  0  0  0  0  0  0  0  0  0  0  0
    1.8023    0.8766   28.0177 H   0  0  0  0  0  0  0  0  0  0  0  0
   -0.6138   -0.0210   27.4569 H   0  0  0  0  0  0  0  0  0  0  0  0
   -1.9393   -2.8351   28.8921 H   0  0  0  0  0  0  0  0  0  0  0  0
   -1.6627   -2.4743   27.2577 H   0  0  0  0  0  0  0  0  0  0  0  0
    0.6195   -5.1473   24.3911 H   0  0  0  0  0  0  0  0  0  0  0  0
   -0.8141   -7.4651   22.4502 H   0  0  0  0  0  0  0  0  0  0  0  0
   -1.2292   -6.6599   30.8146 H   0  0  0  0  0  0  0  0  0  0  0  0
   -0.0470   -7.0638   35.9663 H   0  0  0  0  0  0  0  0  0  0  0  0
  1  2  2  0
  2  3  1  0
  3  4  1  0
  4  5  1  0
  5  6  2  0
  6  7  1  0
  7  8  1  0
  2  9  1  0
  9 10  1  0
 10 11  2  0
 11 12  1  0
 12 13  1  0
 13 14  1  0
 14 15  1  0
 15 16  1  0
 16 17  1  0
 17 18  1  0
 18 19  2  0
 19 20  1  0
 20 21  1  0
 21 22  1  0
 22 23  1  0
 23 24  2  0
 23 25  1  0
 25 26  1  0
 25 27  1  0
 12 28  2  0
 28 29  1  0
 29 30  2  0
 30 31  1  0
 31 32  2  0
 32 33  1  0
  8  4  2  0
 33 10  1  0
 22 14  1  0
 33 29  1  0
 20 16  2  0
  3 34  1  0
  5 35  1  0
  7 36  1  0
  8 37  1  0
  9 38  1  0
 11 39  1  0
 13 40  1  0
 14 41  1  0
 15 42  1  0
 15 43  1  0
 18 44  1  0
 19 45  1  0
 21 46  1  0
 21 47  1  0
 25 48  1  0
 26 49  1  0
 28 50  1  0
 32 51  1  0
M  END
>  <Energy>  (500) 
455.73887600919159

>  <compound_id>  (500) 
2651

>  <target_id>  (500) 
1

>  <reference_id>  (500) 
145

>  <inspiration_ids>  (500) 
[177, 145]

>  <energy_score>  (500) 
356.364367545507

>  <distance_score>  (500) 
4.871394817730146

>  <path>  (500) 
/opt/xchem-fragalysis-2/maxwin/BulkDock/SCRATCH/505736/C2651-P145/C2651-P145.minimised.mol

>  <scratch_subdir>  (500) 
/opt/xchem-fragalysis-2/maxwin/BulkDock/SCRATCH/505736/C2651-P145

>  <fragmenstein_runtime>  (500) 
15.768157482147217

>  <fragmenstein_outcome>  (500) 
too moved

>  <fragmenstein_mode>  (500) 
expansion

>  <fragmenstein_error>  (500) 


$$$$
C2652-P177
     RDKit          3D

 51 55  0  0  0  0  0  0  0  0999 V2000
   -1.9201    0.1330   30.9311 O   0  0  0  0  0  0  0  0  0  0  0  0
   -1.1325   -0.7028   31.1708 C   0  0  0  0  0  0  0  0  0  0  0  0
   -0.2520   -0.8813   32.3577 N   0  0  0  0  0  0  0  0  0  0  0  0
   -0.0530   -0.0876   33.4383 C   0  0  0  0  0  0  0  0  0  0  0  0
    0.9452   -0.1706   34.4186 C   0  0  0  0  0  0  0  0  0  0  0  0
    0.8537    0.8241   35.3030 N   0  0  0  0  0  0  0  0  0  0  0  0
   -0.2151    1.5250   34.8869 N   0  0  0  0  0  0  0  0  0  0  0  0
   -0.7988    1.0086   33.7726 C   0  0  0  0  0  0  0  0  0  0  0  0
   -0.6569   -1.8433   30.3375 N   0  0  0  0  0  0  0  0  0  0  0  0
   -0.9335   -2.1772   29.0456 C   0  0  0  0  0  0  0  0  0  0  0  0
   -1.5104   -1.3179   28.1900 C   0  0  0  0  0  0  0  0  0  0  0  0
   -1.6152   -1.6518   26.7767 C   0  0  0  0  0  0  0  0  0  0  0  0
   -1.1436   -2.7987   26.2309 C   0  0  0  0  0  0  0  0  0  0  0  0
   -0.8934   -2.8825   24.8052 N   0  0  0  0  0  0  0  0  0  0  0  0
    0.3721   -3.5400   24.1955 C   0  0  0  0  0  0  0  0  0  0  0  0
    1.3501   -3.4560   25.6409 C   0  0  0  0  0  0  0  0  0  0  0  0
    2.7632   -3.3841   25.5508 C   0  0  0  0  0  0  0  0  0  0  0  0
    3.8796   -3.5178   26.7942 S   0  0  0  0  0  0  0  0  0  0  0  0
    5.0295   -2.7335   25.8102 C   0  0  0  0  0  0  0  0  0  0  0  0
    4.4817   -2.4262   24.5781 C   0  0  0  0  0  0  0  0  0  0  0  0
    3.1654   -2.9361   24.3687 C   0  0  0  0  0  0  0  0  0  0  0  0
    2.1474   -2.8900   23.1838 C   0  0  0  0  0  0  0  0  0  0  0  0
    0.6982   -3.0325   22.5662 N   0  0  0  0  0  0  0  0  0  0  0  0
    0.7483   -3.9565   20.9746 C   0  0  0  0  0  0  0  0  0  0  0  0
    0.6256   -5.1553   21.0220 O   0  0  0  0  0  0  0  0  0  0  0  0
    0.7695   -3.3200   18.9543 C   0  0  0  0  0  0  0  0  0  0  0  0
    2.5088   -2.7435   17.6478 S   0  0  0  0  0  0  0  0  0  0  0  0
    0.6156   -1.2699   18.2702 Cl  0  0  0  0  0  0  0  0  0  0  0  0
   -0.7730   -3.8250   27.2413 C   0  0  0  0  0  0  0  0  0  0  0  0
   -0.6079   -5.1422   27.1918 N   0  0  0  0  0  0  0  0  0  0  0  0
   -0.1431   -5.5847   28.4078 N   0  0  0  0  0  0  0  0  0  0  0  0
   -0.1068   -4.5440   29.2026 C   0  0  0  0  0  0  0  0  0  0  0  0
   -0.5923   -3.4346   28.5586 N   0  0  0  0  0  0  0  0  0  0  0  0
    0.3593   -1.6565   32.2026 H   0  0  0  0  0  0  0  0  0  0  0  0
    1.7440   -0.8918   34.5272 H   0  0  0  0  0  0  0  0  0  0  0  0
   -0.4875    2.3453   35.4191 H   0  0  0  0  0  0  0  0  0  0  0  0
   -1.6707    1.4584   33.3266 H   0  0  0  0  0  0  0  0  0  0  0  0
   -0.0395   -2.4141   30.8794 H   0  0  0  0  0  0  0  0  0  0  0  0
   -1.7975   -0.3104   28.4749 H   0  0  0  0  0  0  0  0  0  0  0  0
   -1.9572   -0.8521   26.1436 H   0  0  0  0  0  0  0  0  0  0  0  0
   -1.3390   -2.1971   24.2069 H   0  0  0  0  0  0  0  0  0  0  0  0
   -0.2395   -4.3492   23.9275 H   0  0  0  0  0  0  0  0  0  0  0  0
    1.2364   -4.2520   26.3608 H   0  0  0  0  0  0  0  0  0  0  0  0
    1.1229   -2.4955   26.1275 H   0  0  0  0  0  0  0  0  0  0  0  0
    6.0211   -2.5044   26.1741 H   0  0  0  0  0  0  0  0  0  0  0  0
    5.0170   -1.8732   23.8348 H   0  0  0  0  0  0  0  0  0  0  0  0
    1.6821   -2.1688   23.8579 H   0  0  0  0  0  0  0  0  0  0  0  0
    2.2023   -3.9267   23.0141 H   0  0  0  0  0  0  0  0  0  0  0  0
   -0.2120   -3.5706   18.5827 H   0  0  0  0  0  0  0  0  0  0  0  0
    1.7857   -1.9715   16.8264 H   0  0  0  0  0  0  0  0  0  0  0  0
    0.2029   -4.5562   30.2349 H   0  0  0  0  0  0  0  0  0  0  0  0
  1  2  2  0
  2  3  1  0
  3  4  1  0
  4  5  1  0
  5  6  2  0
  6  7  1  0
  7  8  1  0
  2  9  1  0
  9 10  1  0
 10 11  2  0
 11 12  1  0
 12 13  2  0
 13 14  1  0
 14 15  1  0
 15 16  1  0
 16 17  1  0
 17 18  1  0
 18 19  1  0
 19 20  2  0
 20 21  1  0
 21 22  1  0
 22 23  1  0
 23 24  1  0
 24 25  2  0
 24 26  1  0
 26 27  1  0
 26 28  1  0
 13 29  1  0
 29 30  2  0
 30 31  1  0
 31 32  2  0
 32 33  1  0
  8  4  2  0
 33 10  1  0
 23 15  1  0
 33 29  1  0
 21 17  2  0
  3 34  1  0
  5 35  1  0
  7 36  1  0
  8 37  1  0
  9 38  1  0
 11 39  1  0
 12 40  1  0
 14 41  1  0
 15 42  1  0
 16 43  1  0
 16 44  1  0
 19 45  1  0
 20 46  1  0
 22 47  1  0
 22 48  1  0
 26 49  1  0
 27 50  1  0
 32 51  1  0
M  END
>  <Energy>  (501) 
587.10711040322303

>  <compound_id>  (501) 
2652

>  <target_id>  (501) 
1

>  <reference_id>  (501) 
177

>  <inspiration_ids>  (501) 
[177, 147]

>  <energy_score>  (501) 
454.40454759487784

>  <distance_score>  (501) 
6.379621574887721

>  <path>  (501) 
/opt/xchem-fragalysis-2/maxwin/BulkDock/SCRATCH/505736/C2652-P177/C2652-P177.minimised.mol

>  <scratch_subdir>  (501) 
/opt/xchem-fragalysis-2/maxwin/BulkDock/SCRATCH/505736/C2652-P177

>  <fragmenstein_runtime>  (501) 
22.567798852920532

>  <fragmenstein_outcome>  (501) 
too moved

>  <fragmenstein_mode>  (501) 
expansion

>  <fragmenstein_error>  (501) 


$$$$
C2652-P147
     RDKit          3D

 51 55  0  0  0  0  0  0  0  0999 V2000
   -1.3203   -0.7882   32.5668 O   0  0  0  0  0  0  0  0  0  0  0  0
   -1.8170   -1.7658   32.9837 C   0  0  0  0  0  0  0  0  0  0  0  0
   -3.0246   -1.9395   33.8281 N   0  0  0  0  0  0  0  0  0  0  0  0
   -3.9312   -1.0335   34.2721 C   0  0  0  0  0  0  0  0  0  0  0  0
   -5.2155   -1.2384   34.7850 C   0  0  0  0  0  0  0  0  0  0  0  0
   -5.8546   -0.0859   34.9995 N   0  0  0  0  0  0  0  0  0  0  0  0
   -4.9439    0.8499   34.6839 N   0  0  0  0  0  0  0  0  0  0  0  0
   -3.7793    0.3274   34.2133 C   0  0  0  0  0  0  0  0  0  0  0  0
   -1.4721   -3.2122   32.7327 N   0  0  0  0  0  0  0  0  0  0  0  0
   -0.5546   -3.7759   31.8871 C   0  0  0  0  0  0  0  0  0  0  0  0
    0.1201   -2.9781   31.0400 C   0  0  0  0  0  0  0  0  0  0  0  0
    0.9933   -3.5367   30.0406 C   0  0  0  0  0  0  0  0  0  0  0  0
    1.2061   -4.8586   29.8959 C   0  0  0  0  0  0  0  0  0  0  0  0
    2.1027   -5.4029   28.9847 N   0  0  0  0  0  0  0  0  0  0  0  0
    3.1034   -4.7559   28.1126 C   0  0  0  0  0  0  0  0  0  0  0  0
    3.9600   -3.7930   29.0581 C   0  0  0  0  0  0  0  0  0  0  0  0
    5.1494   -3.6206   28.2376 C   0  0  0  0  0  0  0  0  0  0  0  0
    6.7617   -3.6853   28.6524 S   0  0  0  0  0  0  0  0  0  0  0  0
    7.1671   -3.8169   26.9896 C   0  0  0  0  0  0  0  0  0  0  0  0
    6.0484   -3.8134   26.1714 C   0  0  0  0  0  0  0  0  0  0  0  0
    4.8693   -3.6195   26.9058 C   0  0  0  0  0  0  0  0  0  0  0  0
    3.4062   -3.4691   26.5549 C   0  0  0  0  0  0  0  0  0  0  0  0
    2.3243   -4.5658   26.7728 N   0  0  0  0  0  0  0  0  0  0  0  0
    2.2324   -5.4150   25.5919 C   0  0  0  0  0  0  0  0  0  0  0  0
    2.8301   -6.4360   25.3465 O   0  0  0  0  0  0  0  0  0  0  0  0
    0.8378   -4.9745   24.2215 C   0  0  0  0  0  0  0  0  0  0  0  0
   -1.2725   -5.1861   24.5059 S   0  0  0  0  0  0  0  0  0  0  0  0
    1.2088   -3.6011   22.8913 Cl  0  0  0  0  0  0  0  0  0  0  0  0
    0.4283   -5.7260   30.7504 C   0  0  0  0  0  0  0  0  0  0  0  0
    0.2673   -7.0357   30.7693 N   0  0  0  0  0  0  0  0  0  0  0  0
   -0.5458   -7.3506   31.8304 N   0  0  0  0  0  0  0  0  0  0  0  0
   -0.8739   -6.2272   32.4263 C   0  0  0  0  0  0  0  0  0  0  0  0
   -0.3635   -5.1562   31.7445 N   0  0  0  0  0  0  0  0  0  0  0  0
   -3.2180   -2.9233   33.9346 H   0  0  0  0  0  0  0  0  0  0  0  0
   -5.7345   -2.1668   34.9794 H   0  0  0  0  0  0  0  0  0  0  0  0
   -5.1911    1.8258   34.8190 H   0  0  0  0  0  0  0  0  0  0  0  0
   -2.9556    0.9534   33.8993 H   0  0  0  0  0  0  0  0  0  0  0  0
   -2.0495   -3.7998   33.3163 H   0  0  0  0  0  0  0  0  0  0  0  0
    0.0192   -1.8971   31.0219 H   0  0  0  0  0  0  0  0  0  0  0  0
    1.4435   -2.8041   29.3819 H   0  0  0  0  0  0  0  0  0  0  0  0
    1.7198   -6.2458   28.5637 H   0  0  0  0  0  0  0  0  0  0  0  0
    3.7574   -5.6179   27.8781 H   0  0  0  0  0  0  0  0  0  0  0  0
    4.1891   -4.2832   30.0106 H   0  0  0  0  0  0  0  0  0  0  0  0
    3.4908   -2.8278   29.2585 H   0  0  0  0  0  0  0  0  0  0  0  0
    8.2015   -3.9290   26.6938 H   0  0  0  0  0  0  0  0  0  0  0  0
    6.1033   -3.9530   25.1038 H   0  0  0  0  0  0  0  0  0  0  0  0
    3.0365   -2.5505   27.0331 H   0  0  0  0  0  0  0  0  0  0  0  0
    3.4602   -3.3451   25.4672 H   0  0  0  0  0  0  0  0  0  0  0  0
    0.8454   -5.7845   23.4971 H   0  0  0  0  0  0  0  0  0  0  0  0
   -1.2164   -5.5404   25.8098 H   0  0  0  0  0  0  0  0  0  0  0  0
   -1.4699   -6.1394   33.3210 H   0  0  0  0  0  0  0  0  0  0  0  0
  1  2  2  0
  2  3  1  0
  3  4  1  0
  4  5  1  0
  5  6  2  0
  6  7  1  0
  7  8  1  0
  2  9  1  0
  9 10  1  0
 10 11  2  0
 11 12  1  0
 12 13  2  0
 13 14  1  0
 14 15  1  0
 15 16  1  0
 16 17  1  0
 17 18  1  0
 18 19  1  0
 19 20  2  0
 20 21  1  0
 21 22  1  0
 22 23  1  0
 23 24  1  0
 24 25  2  0
 24 26  1  0
 26 27  1  0
 26 28  1  0
 13 29  1  0
 29 30  2  0
 30 31  1  0
 31 32  2  0
 32 33  1  0
  8  4  2  0
 33 10  1  0
 23 15  1  0
 33 29  1  0
 21 17  2  0
  3 34  1  0
  5 35  1  0
  7 36  1  0
  8 37  1  0
  9 38  1  0
 11 39  1  0
 12 40  1  0
 14 41  1  0
 15 42  1  0
 16 43  1  0
 16 44  1  0
 19 45  1  0
 20 46  1  0
 22 47  1  0
 22 48  1  0
 26 49  1  0
 27 50  1  0
 32 51  1  0
M  END
>  <Energy>  (502) 
240.04673008728048

>  <compound_id>  (502) 
2652

>  <target_id>  (502) 
1

>  <reference_id>  (502) 
147

>  <inspiration_ids>  (502) 
[177, 147]

>  <energy_score>  (502) 
107.34416727893586

>  <distance_score>  (502) 
5.969007130320809

>  <path>  (502) 
/opt/xchem-fragalysis-2/maxwin/BulkDock/SCRATCH/505736/C2652-P147/C2652-P147.minimised.mol

>  <scratch_subdir>  (502) 
/opt/xchem-fragalysis-2/maxwin/BulkDock/SCRATCH/505736/C2652-P147

>  <fragmenstein_runtime>  (502) 
27.93004870414734

>  <fragmenstein_outcome>  (502) 
too moved

>  <fragmenstein_mode>  (502) 
expansion

>  <fragmenstein_error>  (502) 


$$$$
C2653-P177
     RDKit          3D

 59 64  0  0  0  0  0  0  0  0999 V2000
   -1.9665   -2.1265   29.1566 C   0  0  0  0  0  0  0  0  0  0  0  0
   -1.0836   -3.1683   28.7712 C   0  0  0  0  0  0  0  0  0  0  0  0
    0.9473   -3.5909   28.0775 C   0  0  0  0  0  0  0  0  0  0  0  0
    1.7815   -3.7397   26.2560 C   0  0  0  0  0  0  0  0  0  0  0  0
    3.2025   -4.2785   26.0626 C   0  0  0  0  0  0  0  0  0  0  0  0
    3.8531   -3.0051   25.6743 C   0  0  0  0  0  0  0  0  0  0  0  0
    5.4144   -2.6312   26.1976 S   0  0  0  0  0  0  0  0  0  0  0  0
    4.9688   -0.9994   26.3972 C   0  0  0  0  0  0  0  0  0  0  0  0
    3.7091   -0.7359   25.9027 C   0  0  0  0  0  0  0  0  0  0  0  0
    3.0445   -1.9012   25.3453 C   0  0  0  0  0  0  0  0  0  0  0  0
    1.3383   -2.0161   25.0095 C   0  0  0  0  0  0  0  0  0  0  0  0
    1.0946   -3.2800   24.5277 N   0  0  0  0  0  0  0  0  0  0  0  0
    1.7416   -3.4384   22.9413 C   0  0  0  0  0  0  0  0  0  0  0  0
    2.8224   -3.8097   22.8326 O   0  0  0  0  0  0  0  0  0  0  0  0
    0.9090   -3.2758   21.1568 C   0  0  0  0  0  0  0  0  0  0  0  0
    1.3233   -1.3680   19.5448 S   0  0  0  0  0  0  0  0  0  0  0  0
    0.7419   -3.2352   18.7375 Cl  0  0  0  0  0  0  0  0  0  0  0  0
    2.4022   -3.2309   29.1548 N   0  0  0  0  0  0  0  0  0  0  0  0
    2.2805   -3.7701   30.5165 C   0  0  0  0  0  0  0  0  0  0  0  0
    1.1877   -3.1362   31.6634 S   0  0  0  0  0  0  0  0  0  0  0  0
    0.3183   -3.1399   30.2080 C   0  0  0  0  0  0  0  0  0  0  0  0
    0.4475   -1.8526   29.2029 C   0  0  0  0  0  0  0  0  0  0  0  0
   -0.1899   -1.9987   27.4187 C   0  0  0  0  0  0  0  0  0  0  0  0
   -0.6934   -3.4608   26.8032 C   0  0  0  0  0  0  0  0  0  0  0  0
   -0.6087   -4.9793   27.8456 C   0  0  0  0  0  0  0  0  0  0  0  0
   -0.8617   -6.2688   27.7765 N   0  0  0  0  0  0  0  0  0  0  0  0
   -0.6173   -6.8797   29.0354 N   0  0  0  0  0  0  0  0  0  0  0  0
   -0.2144   -6.0524   29.9912 C   0  0  0  0  0  0  0  0  0  0  0  0
   -0.1242   -4.7575   29.5475 N   0  0  0  0  0  0  0  0  0  0  0  0
    2.4656   -5.0515   30.3078 N   0  0  0  0  0  0  0  0  0  0  0  0
    3.0956   -5.0910   29.0573 N   0  0  0  0  0  0  0  0  0  0  0  0
    3.6492   -3.8881   28.9966 C   0  0  0  0  0  0  0  0  0  0  0  0
    4.9538   -3.6722   29.7248 C   0  0  0  0  0  0  0  0  0  0  0  0
    5.0962   -2.8135   30.8251 C   0  0  0  0  0  0  0  0  0  0  0  0
    6.1425   -3.0008   31.7368 C   0  0  0  0  0  0  0  0  0  0  0  0
    7.0475   -4.0228   31.5092 C   0  0  0  0  0  0  0  0  0  0  0  0
    6.9922   -4.8308   30.4334 N   0  0  0  0  0  0  0  0  0  0  0  0
    5.9667   -4.6228   29.5613 C   0  0  0  0  0  0  0  0  0  0  0  0
   -1.7515   -1.0604   29.1808 H   0  0  0  0  0  0  0  0  0  0  0  0
   -2.9953   -2.3447   29.4345 H   0  0  0  0  0  0  0  0  0  0  0  0
   -1.8329   -3.9589   28.9203 H   0  0  0  0  0  0  0  0  0  0  0  0
    1.2649   -4.6509   28.1851 H   0  0  0  0  0  0  0  0  0  0  0  0
    2.0837   -2.8252   26.7588 H   0  0  0  0  0  0  0  0  0  0  0  0
    3.3059   -5.1062   25.3990 H   0  0  0  0  0  0  0  0  0  0  0  0
    3.6469   -4.7146   26.9382 H   0  0  0  0  0  0  0  0  0  0  0  0
    5.6663   -0.2993   26.8342 H   0  0  0  0  0  0  0  0  0  0  0  0
    3.2781    0.2560   25.9423 H   0  0  0  0  0  0  0  0  0  0  0  0
    1.3364   -1.5577   26.0154 H   0  0  0  0  0  0  0  0  0  0  0  0
    0.3373   -2.0700   25.3719 H   0  0  0  0  0  0  0  0  0  0  0  0
    0.0735   -2.7857   21.7790 H   0  0  0  0  0  0  0  0  0  0  0  0
    0.2305   -1.5767   18.8030 H   0  0  0  0  0  0  0  0  0  0  0  0
    0.8425   -0.8760   29.4760 H   0  0  0  0  0  0  0  0  0  0  0  0
   -0.4318   -1.0277   26.9880 H   0  0  0  0  0  0  0  0  0  0  0  0
   -1.2406   -3.5698   25.8693 H   0  0  0  0  0  0  0  0  0  0  0  0
    0.0280   -6.3314   31.0055 H   0  0  0  0  0  0  0  0  0  0  0  0
    4.3643   -2.0384   31.0321 H   0  0  0  0  0  0  0  0  0  0  0  0
    6.2407   -2.3640   32.6093 H   0  0  0  0  0  0  0  0  0  0  0  0
    7.8729   -4.2080   32.1901 H   0  0  0  0  0  0  0  0  0  0  0  0
    5.9301   -5.3383   28.7409 H   0  0  0  0  0  0  0  0  0  0  0  0
  1  2  2  0
  2  3  1  0
  3  4  1  0
  4  5  1  0
  5  6  1  0
  6  7  1  0
  7  8  1  0
  8  9  2  0
  9 10  1  0
 10 11  1  0
 11 12  1  0
 12 13  1  0
 13 14  2  0
 13 15  1  0
 15 16  1  0
 15 17  1  0
  3 18  1  0
 18 19  1  0
 19 20  1  0
 20 21  1  0
 21 22  2  0
 22 23  1  0
 23 24  2  0
 24 25  1  0
 25 26  2  0
 26 27  1  0
 27 28  2  0
 28 29  1  0
 19 30  2  0
 30 31  1  0
 31 32  2  0
 32 33  1  0
 33 34  2  0
 34 35  1  0
 35 36  2  0
 36 37  1  0
 37 38  2  0
 12  4  1  0
 32 18  1  0
 38 33  1  0
 10  6  2  0
 29 21  1  0
 29 25  1  0
  1 39  1  0
  1 40  1  0
  2 41  1  0
  3 42  1  0
  4 43  1  0
  5 44  1  0
  5 45  1  0
  8 46  1  0
  9 47  1  0
 11 48  1  0
 11 49  1  0
 15 50  1  0
 16 51  1  0
 22 52  1  0
 23 53  1  0
 24 54  1  0
 28 55  1  0
 34 56  1  0
 35 57  1  0
 36 58  1  0
 38 59  1  0
M  END
>  <Energy>  (503) 
2034.9635689538784

>  <compound_id>  (503) 
2653

>  <target_id>  (503) 
1

>  <reference_id>  (503) 
177

>  <inspiration_ids>  (503) 
[177, 148]

>  <energy_score>  (503) 
1831.2995432187843

>  <distance_score>  (503) 
6.458582503282915

>  <path>  (503) 
/opt/xchem-fragalysis-2/maxwin/BulkDock/SCRATCH/505736/C2653-P177/C2653-P177.minimised.mol

>  <scratch_subdir>  (503) 
/opt/xchem-fragalysis-2/maxwin/BulkDock/SCRATCH/505736/C2653-P177

>  <fragmenstein_runtime>  (503) 
10.83452844619751

>  <fragmenstein_outcome>  (503) 
too moved

>  <fragmenstein_mode>  (503) 
expansion

>  <fragmenstein_error>  (503) 


$$$$
C2653-P148
     RDKit          3D

 59 64  0  0  0  0  0  0  0  0999 V2000
   -0.9401   -1.8920   30.3348 C   0  0  0  0  0  0  0  0  0  0  0  0
   -0.1603   -3.0420   30.1199 C   0  0  0  0  0  0  0  0  0  0  0  0
    1.8721   -3.8564   30.0647 C   0  0  0  0  0  0  0  0  0  0  0  0
    3.0412   -4.1934   28.5107 C   0  0  0  0  0  0  0  0  0  0  0  0
    3.9192   -5.4395   28.5933 C   0  0  0  0  0  0  0  0  0  0  0  0
    5.0921   -5.0017   27.8089 C   0  0  0  0  0  0  0  0  0  0  0  0
    6.6513   -5.6129   27.9961 S   0  0  0  0  0  0  0  0  0  0  0  0
    7.2948   -4.2849   27.1313 C   0  0  0  0  0  0  0  0  0  0  0  0
    6.3118   -3.4458   26.6488 C   0  0  0  0  0  0  0  0  0  0  0  0
    5.0071   -3.9078   26.9715 C   0  0  0  0  0  0  0  0  0  0  0  0
    3.6738   -3.2312   26.6131 C   0  0  0  0  0  0  0  0  0  0  0  0
    2.4038   -4.1417   26.8192 N   0  0  0  0  0  0  0  0  0  0  0  0
    2.3413   -5.3105   25.6275 C   0  0  0  0  0  0  0  0  0  0  0  0
    2.8360   -6.4144   25.6995 O   0  0  0  0  0  0  0  0  0  0  0  0
    1.1315   -4.7726   23.9856 C   0  0  0  0  0  0  0  0  0  0  0  0
    0.9760   -5.3965   22.1835 S   0  0  0  0  0  0  0  0  0  0  0  0
    1.7014   -3.4646   22.9365 Cl  0  0  0  0  0  0  0  0  0  0  0  0
    3.1387   -3.5902   31.3908 N   0  0  0  0  0  0  0  0  0  0  0  0
    2.7690   -3.1487   32.7374 C   0  0  0  0  0  0  0  0  0  0  0  0
    1.7416   -1.8166   32.9992 S   0  0  0  0  0  0  0  0  0  0  0  0
    1.1287   -2.4821   31.5721 C   0  0  0  0  0  0  0  0  0  0  0  0
    1.5474   -1.8157   30.1428 C   0  0  0  0  0  0  0  0  0  0  0  0
    1.0490   -2.6870   28.5436 C   0  0  0  0  0  0  0  0  0  0  0  0
    0.4321   -4.2174   28.5694 C   0  0  0  0  0  0  0  0  0  0  0  0
    0.1532   -5.1009   30.1549 C   0  0  0  0  0  0  0  0  0  0  0  0
   -0.2893   -6.2578   30.5917 N   0  0  0  0  0  0  0  0  0  0  0  0
   -0.3748   -6.2235   32.0006 N   0  0  0  0  0  0  0  0  0  0  0  0
    0.0300   -5.0875   32.5592 C   0  0  0  0  0  0  0  0  0  0  0  0
    0.4620   -4.1728   31.6314 N   0  0  0  0  0  0  0  0  0  0  0  0
    2.7403   -4.1834   33.5506 N   0  0  0  0  0  0  0  0  0  0  0  0
    3.2409   -5.2002   32.8311 N   0  0  0  0  0  0  0  0  0  0  0  0
    3.9881   -4.5912   31.9177 C   0  0  0  0  0  0  0  0  0  0  0  0
    5.4533   -4.5890   32.1131 C   0  0  0  0  0  0  0  0  0  0  0  0
    6.3699   -3.9764   31.2817 C   0  0  0  0  0  0  0  0  0  0  0  0
    7.7358   -4.1164   31.5565 C   0  0  0  0  0  0  0  0  0  0  0  0
    8.1462   -4.8498   32.6622 C   0  0  0  0  0  0  0  0  0  0  0  0
    7.2917   -5.4311   33.5155 N   0  0  0  0  0  0  0  0  0  0  0  0
    5.9798   -5.2749   33.2255 C   0  0  0  0  0  0  0  0  0  0  0  0
   -2.0240   -1.9385   30.2060 H   0  0  0  0  0  0  0  0  0  0  0  0
   -0.5926   -0.8975   30.6066 H   0  0  0  0  0  0  0  0  0  0  0  0
   -1.0668   -3.6629   29.8294 H   0  0  0  0  0  0  0  0  0  0  0  0
    2.0152   -4.9262   30.3814 H   0  0  0  0  0  0  0  0  0  0  0  0
    3.6205   -3.2748   28.7225 H   0  0  0  0  0  0  0  0  0  0  0  0
    3.4358   -6.3260   28.1803 H   0  0  0  0  0  0  0  0  0  0  0  0
    4.2213   -5.6479   29.6062 H   0  0  0  0  0  0  0  0  0  0  0  0
    8.3647   -4.1949   26.9987 H   0  0  0  0  0  0  0  0  0  0  0  0
    6.5312   -2.5470   26.0895 H   0  0  0  0  0  0  0  0  0  0  0  0
    3.5408   -2.2256   27.0286 H   0  0  0  0  0  0  0  0  0  0  0  0
    3.8602   -3.1707   25.5384 H   0  0  0  0  0  0  0  0  0  0  0  0
    0.0687   -4.9787   24.1715 H   0  0  0  0  0  0  0  0  0  0  0  0
    0.9677   -4.2358   21.5069 H   0  0  0  0  0  0  0  0  0  0  0  0
    2.0325   -0.8504   30.0192 H   0  0  0  0  0  0  0  0  0  0  0  0
    0.9586   -2.0008   27.7061 H   0  0  0  0  0  0  0  0  0  0  0  0
   -0.1996   -4.5549   27.7649 H   0  0  0  0  0  0  0  0  0  0  0  0
    0.0435   -4.8766   33.6192 H   0  0  0  0  0  0  0  0  0  0  0  0
    6.0614   -3.4101   30.4092 H   0  0  0  0  0  0  0  0  0  0  0  0
    8.4760   -3.6636   30.9034 H   0  0  0  0  0  0  0  0  0  0  0  0
    9.2003   -4.9794   32.8908 H   0  0  0  0  0  0  0  0  0  0  0  0
    5.3238   -5.7536   33.9515 H   0  0  0  0  0  0  0  0  0  0  0  0
  1  2  2  0
  2  3  1  0
  3  4  1  0
  4  5  1  0
  5  6  1  0
  6  7  1  0
  7  8  1  0
  8  9  2  0
  9 10  1  0
 10 11  1  0
 11 12  1  0
 12 13  1  0
 13 14  2  0
 13 15  1  0
 15 16  1  0
 15 17  1  0
  3 18  1  0
 18 19  1  0
 19 20  1  0
 20 21  1  0
 21 22  2  0
 22 23  1  0
 23 24  2  0
 24 25  1  0
 25 26  2  0
 26 27  1  0
 27 28  2  0
 28 29  1  0
 19 30  2  0
 30 31  1  0
 31 32  2  0
 32 33  1  0
 33 34  2  0
 34 35  1  0
 35 36  2  0
 36 37  1  0
 37 38  2  0
 12  4  1  0
 32 18  1  0
 38 33  1  0
 10  6  2  0
 29 21  1  0
 29 25  1  0
  1 39  1  0
  1 40  1  0
  2 41  1  0
  3 42  1  0
  4 43  1  0
  5 44  1  0
  5 45  1  0
  8 46  1  0
  9 47  1  0
 11 48  1  0
 11 49  1  0
 15 50  1  0
 16 51  1  0
 22 52  1  0
 23 53  1  0
 24 54  1  0
 28 55  1  0
 34 56  1  0
 35 57  1  0
 36 58  1  0
 38 59  1  0
M  END
>  <Energy>  (504) 
1554.8043932767887

>  <compound_id>  (504) 
2653

>  <target_id>  (504) 
1

>  <reference_id>  (504) 
148

>  <inspiration_ids>  (504) 
[177, 148]

>  <energy_score>  (504) 
1351.1403675416914

>  <distance_score>  (504) 
5.884550882753649

>  <path>  (504) 
/opt/xchem-fragalysis-2/maxwin/BulkDock/SCRATCH/505736/C2653-P148/C2653-P148.minimised.mol

>  <scratch_subdir>  (504) 
/opt/xchem-fragalysis-2/maxwin/BulkDock/SCRATCH/505736/C2653-P148

>  <fragmenstein_runtime>  (504) 
10.287254810333252

>  <fragmenstein_outcome>  (504) 
too moved

>  <fragmenstein_mode>  (504) 
expansion

>  <fragmenstein_error>  (504) 


$$$$
C2349-P177
     RDKit          3D

 58 63  0  0  0  0  0  0  0  0999 V2000
    2.7659   -3.4909   22.7446 O   0  0  0  0  0  0  0  0  0  0  0  0
    1.6258   -3.5209   22.7422 C   0  0  0  0  0  0  0  0  0  0  0  0
    0.9420   -3.4533   20.8361 C   0  0  0  0  0  0  0  0  0  0  0  0
    1.4078   -1.4811   19.2991 S   0  0  0  0  0  0  0  0  0  0  0  0
    0.9448   -2.5880   18.5139 Cl  0  0  0  0  0  0  0  0  0  0  0  0
    1.0383   -3.7658   24.3579 N   0  0  0  0  0  0  0  0  0  0  0  0
    0.8076   -2.5046   25.0355 C   0  0  0  0  0  0  0  0  0  0  0  0
    1.5179   -1.8228   26.2791 C   0  0  0  0  0  0  0  0  0  0  0  0
    1.0173   -0.9251   27.2856 C   0  0  0  0  0  0  0  0  0  0  0  0
    2.0308   -0.4194   28.0833 C   0  0  0  0  0  0  0  0  0  0  0  0
    3.5512   -1.1334   27.7264 S   0  0  0  0  0  0  0  0  0  0  0  0
    2.8180   -2.1064   26.5776 C   0  0  0  0  0  0  0  0  0  0  0  0
    3.2760   -3.3644   26.0409 C   0  0  0  0  0  0  0  0  0  0  0  0
    1.8754   -4.1003   25.9256 C   0  0  0  0  0  0  0  0  0  0  0  0
    1.0537   -4.3650   27.3805 C   0  0  0  0  0  0  0  0  0  0  0  0
    1.8638   -4.3161   28.7682 C   0  0  0  0  0  0  0  0  0  0  0  0
    1.1099   -4.5954   30.0082 N   0  0  0  0  0  0  0  0  0  0  0  0
   -0.1815   -4.2212   30.2731 C   0  0  0  0  0  0  0  0  0  0  0  0
   -0.7471   -2.6189   29.9909 S   0  0  0  0  0  0  0  0  0  0  0  0
   -1.5213   -2.3333   31.5173 C   0  0  0  0  0  0  0  0  0  0  0  0
   -2.8126   -1.9457   31.5285 C   0  0  0  0  0  0  0  0  0  0  0  0
   -3.4723   -1.6768   32.7927 C   0  0  0  0  0  0  0  0  0  0  0  0
   -2.8339   -1.8387   33.9654 C   0  0  0  0  0  0  0  0  0  0  0  0
   -1.4914   -2.2922   33.9760 C   0  0  0  0  0  0  0  0  0  0  0  0
   -0.6635   -2.5961   34.9514 N   0  0  0  0  0  0  0  0  0  0  0  0
    0.5619   -2.8557   34.3925 N   0  0  0  0  0  0  0  0  0  0  0  0
    0.4431   -2.6865   33.0970 C   0  0  0  0  0  0  0  0  0  0  0  0
   -0.8616   -2.4616   32.7533 N   0  0  0  0  0  0  0  0  0  0  0  0
   -0.7301   -5.1170   31.0590 N   0  0  0  0  0  0  0  0  0  0  0  0
    0.2964   -5.8560   31.5699 N   0  0  0  0  0  0  0  0  0  0  0  0
    1.4256   -5.2621   31.1968 C   0  0  0  0  0  0  0  0  0  0  0  0
    2.5776   -5.1705   32.1126 C   0  0  0  0  0  0  0  0  0  0  0  0
    2.5136   -5.8354   33.3592 C   0  0  0  0  0  0  0  0  0  0  0  0
    3.5629   -5.7640   34.2747 C   0  0  0  0  0  0  0  0  0  0  0  0
    4.6677   -5.0183   33.9205 C   0  0  0  0  0  0  0  0  0  0  0  0
    4.7698   -4.3517   32.7469 N   0  0  0  0  0  0  0  0  0  0  0  0
    3.7170   -4.4113   31.8891 C   0  0  0  0  0  0  0  0  0  0  0  0
    0.7688   -4.4602   20.4503 H   0  0  0  0  0  0  0  0  0  0  0  0
    0.1222   -1.3189   18.9199 H   0  0  0  0  0  0  0  0  0  0  0  0
    1.0382   -1.9076   24.1933 H   0  0  0  0  0  0  0  0  0  0  0  0
   -0.2663   -2.5367   25.2640 H   0  0  0  0  0  0  0  0  0  0  0  0
   -0.0070   -0.5801   27.3556 H   0  0  0  0  0  0  0  0  0  0  0  0
    1.9544    0.3376   28.8518 H   0  0  0  0  0  0  0  0  0  0  0  0
    3.9378   -3.9024   26.7274 H   0  0  0  0  0  0  0  0  0  0  0  0
    3.7689   -3.2516   25.0745 H   0  0  0  0  0  0  0  0  0  0  0  0
    2.3117   -5.0881   25.7487 H   0  0  0  0  0  0  0  0  0  0  0  0
    0.6128   -5.3674   27.3551 H   0  0  0  0  0  0  0  0  0  0  0  0
    0.1918   -3.6941   27.4244 H   0  0  0  0  0  0  0  0  0  0  0  0
    2.6612   -5.0624   28.7212 H   0  0  0  0  0  0  0  0  0  0  0  0
    2.3081   -3.3399   28.9416 H   0  0  0  0  0  0  0  0  0  0  0  0
   -3.3928   -1.8099   30.6202 H   0  0  0  0  0  0  0  0  0  0  0  0
   -4.5080   -1.3511   32.7719 H   0  0  0  0  0  0  0  0  0  0  0  0
   -3.3277   -1.6652   34.9146 H   0  0  0  0  0  0  0  0  0  0  0  0
    1.2517   -2.6984   32.3882 H   0  0  0  0  0  0  0  0  0  0  0  0
    1.6171   -6.3891   33.6375 H   0  0  0  0  0  0  0  0  0  0  0  0
    3.5026   -6.2506   35.2416 H   0  0  0  0  0  0  0  0  0  0  0  0
    5.5174   -4.9140   34.5897 H   0  0  0  0  0  0  0  0  0  0  0  0
    3.8536   -3.8224   30.9872 H   0  0  0  0  0  0  0  0  0  0  0  0
  1  2  2  0
  2  3  1  0
  3  4  1  0
  3  5  1  0
  2  6  1  0
  6  7  1  0
  7  8  1  0
  8  9  1  0
  9 10  2  0
 10 11  1  0
 11 12  1  0
 12 13  1  0
 13 14  1  0
 14 15  1  0
 15 16  1  0
 16 17  1  0
 17 18  1  0
 18 19  1  0
 19 20  1  0
 20 21  2  0
 21 22  1  0
 22 23  2  0
 23 24  1  0
 24 25  2  0
 25 26  1  0
 26 27  2  0
 27 28  1  0
 18 29  2  0
 29 30  1  0
 30 31  2  0
 31 32  1  0
 32 33  2  0
 33 34  1  0
 34 35  2  0
 35 36  1  0
 36 37  2  0
 14  6  1  0
 31 17  1  0
 37 32  1  0
 12  8  2  0
 28 20  1  0
 28 24  1  0
  3 38  1  0
  4 39  1  0
  7 40  1  0
  7 41  1  0
  9 42  1  0
 10 43  1  0
 13 44  1  0
 13 45  1  0
 14 46  1  0
 15 47  1  0
 15 48  1  0
 16 49  1  0
 16 50  1  0
 21 51  1  0
 22 52  1  0
 23 53  1  0
 27 54  1  0
 33 55  1  0
 34 56  1  0
 35 57  1  0
 37 58  1  0
M  END
>  <Energy>  (505) 
793.52222397698142

>  <compound_id>  (505) 
2349

>  <target_id>  (505) 
1

>  <reference_id>  (505) 
177

>  <inspiration_ids>  (505) 
[177, 149]

>  <energy_score>  (505) 
614.6494565492034

>  <distance_score>  (505) 
5.982256267674381

>  <path>  (505) 
/opt/xchem-fragalysis-2/maxwin/BulkDock/SCRATCH/505736/C2349-P177/C2349-P177.minimised.mol

>  <scratch_subdir>  (505) 
/opt/xchem-fragalysis-2/maxwin/BulkDock/SCRATCH/505736/C2349-P177

>  <fragmenstein_runtime>  (505) 
15.246938467025757

>  <fragmenstein_outcome>  (505) 
too moved

>  <fragmenstein_mode>  (505) 
expansion

>  <fragmenstein_error>  (505) 


$$$$
C2349-P149
     RDKit          3D

 58 63  0  0  0  0  0  0  0  0999 V2000
    4.8158   -5.3741   28.7623 O   0  0  0  0  0  0  0  0  0  0  0  0
    4.4870   -4.2911   29.1839 C   0  0  0  0  0  0  0  0  0  0  0  0
    3.8587   -3.2647   28.1933 C   0  0  0  0  0  0  0  0  0  0  0  0
    2.0769   -3.2512   28.4372 S   0  0  0  0  0  0  0  0  0  0  0  0
    4.2491   -3.6577   26.4497 Cl  0  0  0  0  0  0  0  0  0  0  0  0
    4.6653   -3.6898   30.5231 N   0  0  0  0  0  0  0  0  0  0  0  0
    5.9797   -2.9123   30.5755 C   0  0  0  0  0  0  0  0  0  0  0  0
    7.0874   -3.6998   29.9966 C   0  0  0  0  0  0  0  0  0  0  0  0
    7.8392   -3.5409   28.8036 C   0  0  0  0  0  0  0  0  0  0  0  0
    8.6664   -4.6279   28.5976 C   0  0  0  0  0  0  0  0  0  0  0  0
    8.5337   -5.7944   29.8585 S   0  0  0  0  0  0  0  0  0  0  0  0
    7.3644   -4.8693   30.6375 C   0  0  0  0  0  0  0  0  0  0  0  0
    6.5678   -5.2301   31.8309 C   0  0  0  0  0  0  0  0  0  0  0  0
    5.2437   -4.3231   31.8829 C   0  0  0  0  0  0  0  0  0  0  0  0
    4.9926   -3.6318   33.2762 C   0  0  0  0  0  0  0  0  0  0  0  0
    3.7053   -4.0084   34.0889 C   0  0  0  0  0  0  0  0  0  0  0  0
    3.3734   -5.3699   34.4800 N   0  0  0  0  0  0  0  0  0  0  0  0
    2.1049   -5.9049   34.6020 C   0  0  0  0  0  0  0  0  0  0  0  0
    0.6378   -5.0247   34.8721 S   0  0  0  0  0  0  0  0  0  0  0  0
    0.1471   -5.0159   33.2207 C   0  0  0  0  0  0  0  0  0  0  0  0
    0.2531   -3.8700   32.5200 C   0  0  0  0  0  0  0  0  0  0  0  0
    0.0352   -3.8890   31.0932 C   0  0  0  0  0  0  0  0  0  0  0  0
   -0.1899   -5.0402   30.4385 C   0  0  0  0  0  0  0  0  0  0  0  0
   -0.4078   -6.2364   31.1726 C   0  0  0  0  0  0  0  0  0  0  0  0
   -0.8248   -7.4295   30.8074 N   0  0  0  0  0  0  0  0  0  0  0  0
   -1.0061   -8.1690   31.9488 N   0  0  0  0  0  0  0  0  0  0  0  0
   -0.6550   -7.4242   32.9777 C   0  0  0  0  0  0  0  0  0  0  0  0
   -0.2703   -6.1787   32.5522 N   0  0  0  0  0  0  0  0  0  0  0  0
    2.1726   -7.2134   34.5699 N   0  0  0  0  0  0  0  0  0  0  0  0
    3.4837   -7.5421   34.7296 N   0  0  0  0  0  0  0  0  0  0  0  0
    4.1809   -6.4232   34.8627 C   0  0  0  0  0  0  0  0  0  0  0  0
    5.5147   -6.3933   35.4280 C   0  0  0  0  0  0  0  0  0  0  0  0
    5.8465   -5.5430   36.4849 C   0  0  0  0  0  0  0  0  0  0  0  0
    7.0832   -5.6777   37.1126 C   0  0  0  0  0  0  0  0  0  0  0  0
    7.9521   -6.6552   36.6560 C   0  0  0  0  0  0  0  0  0  0  0  0
    7.6680   -7.4887   35.6349 N   0  0  0  0  0  0  0  0  0  0  0  0
    6.4509   -7.3561   35.0605 C   0  0  0  0  0  0  0  0  0  0  0  0
    4.2606   -2.2651   28.3678 H   0  0  0  0  0  0  0  0  0  0  0  0
    1.8432   -2.1485   27.7116 H   0  0  0  0  0  0  0  0  0  0  0  0
    5.8115   -2.0689   29.8903 H   0  0  0  0  0  0  0  0  0  0  0  0
    6.2283   -2.3946   31.5108 H   0  0  0  0  0  0  0  0  0  0  0  0
    7.7607   -2.7209   28.1001 H   0  0  0  0  0  0  0  0  0  0  0  0
    9.3289   -4.8078   27.7603 H   0  0  0  0  0  0  0  0  0  0  0  0
    7.1692   -5.0732   32.7333 H   0  0  0  0  0  0  0  0  0  0  0  0
    6.3055   -6.2886   31.8105 H   0  0  0  0  0  0  0  0  0  0  0  0
    4.4918   -5.1061   31.9650 H   0  0  0  0  0  0  0  0  0  0  0  0
    5.8534   -3.8192   33.9271 H   0  0  0  0  0  0  0  0  0  0  0  0
    4.9514   -2.5450   33.1375 H   0  0  0  0  0  0  0  0  0  0  0  0
    2.8652   -3.6396   33.4947 H   0  0  0  0  0  0  0  0  0  0  0  0
    3.7117   -3.4328   35.0231 H   0  0  0  0  0  0  0  0  0  0  0  0
    0.5591   -2.9281   32.9661 H   0  0  0  0  0  0  0  0  0  0  0  0
    0.1046   -2.9470   30.5569 H   0  0  0  0  0  0  0  0  0  0  0  0
   -0.3197   -5.0496   29.3613 H   0  0  0  0  0  0  0  0  0  0  0  0
   -0.6770   -7.7294   34.0161 H   0  0  0  0  0  0  0  0  0  0  0  0
    5.1357   -4.8167   36.8692 H   0  0  0  0  0  0  0  0  0  0  0  0
    7.3584   -5.0471   37.9513 H   0  0  0  0  0  0  0  0  0  0  0  0
    8.9264   -6.7999   37.1152 H   0  0  0  0  0  0  0  0  0  0  0  0
    6.2350   -8.0896   34.2857 H   0  0  0  0  0  0  0  0  0  0  0  0
  1  2  2  0
  2  3  1  0
  3  4  1  0
  3  5  1  0
  2  6  1  0
  6  7  1  0
  7  8  1  0
  8  9  1  0
  9 10  2  0
 10 11  1  0
 11 12  1  0
 12 13  1  0
 13 14  1  0
 14 15  1  0
 15 16  1  0
 16 17  1  0
 17 18  1  0
 18 19  1  0
 19 20  1  0
 20 21  2  0
 21 22  1  0
 22 23  2  0
 23 24  1  0
 24 25  2  0
 25 26  1  0
 26 27  2  0
 27 28  1  0
 18 29  2  0
 29 30  1  0
 30 31  2  0
 31 32  1  0
 32 33  2  0
 33 34  1  0
 34 35  2  0
 35 36  1  0
 36 37  2  0
 14  6  1  0
 31 17  1  0
 37 32  1  0
 12  8  2  0
 28 20  1  0
 28 24  1  0
  3 38  1  0
  4 39  1  0
  7 40  1  0
  7 41  1  0
  9 42  1  0
 10 43  1  0
 13 44  1  0
 13 45  1  0
 14 46  1  0
 15 47  1  0
 15 48  1  0
 16 49  1  0
 16 50  1  0
 21 51  1  0
 22 52  1  0
 23 53  1  0
 27 54  1  0
 33 55  1  0
 34 56  1  0
 35 57  1  0
 37 58  1  0
M  END
>  <Energy>  (506) 
222.59680342486635

>  <compound_id>  (506) 
2349

>  <target_id>  (506) 
1

>  <reference_id>  (506) 
149

>  <inspiration_ids>  (506) 
[177, 149]

>  <energy_score>  (506) 
43.72403599709003

>  <distance_score>  (506) 
5.923182245309659

>  <path>  (506) 
/opt/xchem-fragalysis-2/maxwin/BulkDock/SCRATCH/505736/C2349-P149/C2349-P149.minimised.mol

>  <scratch_subdir>  (506) 
/opt/xchem-fragalysis-2/maxwin/BulkDock/SCRATCH/505736/C2349-P149

>  <fragmenstein_runtime>  (506) 
19.958261251449585

>  <fragmenstein_outcome>  (506) 
too moved

>  <fragmenstein_mode>  (506) 
expansion

>  <fragmenstein_error>  (506) 


$$$$
C2385-P177
     RDKit          3D

 51 55  0  0  0  0  0  0  0  0999 V2000
    2.9075   -2.7171   23.4713 O   0  0  0  0  0  0  0  0  0  0  0  0
    1.8201   -3.1664   23.4408 C   0  0  0  0  0  0  0  0  0  0  0  0
    0.9717   -3.1777   21.6105 C   0  0  0  0  0  0  0  0  0  0  0  0
    1.3461   -1.5984   19.5842 S   0  0  0  0  0  0  0  0  0  0  0  0
    0.8401   -4.9223   21.1494 Cl  0  0  0  0  0  0  0  0  0  0  0  0
    1.1776   -3.8115   24.7290 N   0  0  0  0  0  0  0  0  0  0  0  0
    0.4090   -2.7835   25.5285 C   0  0  0  0  0  0  0  0  0  0  0  0
    0.9988   -1.8293   26.5595 C   0  0  0  0  0  0  0  0  0  0  0  0
    0.3343   -0.8676   27.3880 C   0  0  0  0  0  0  0  0  0  0  0  0
    1.2215   -0.1460   28.1667 C   0  0  0  0  0  0  0  0  0  0  0  0
    2.8268   -0.7296   28.0222 S   0  0  0  0  0  0  0  0  0  0  0  0
    2.2903   -1.9479   26.9958 C   0  0  0  0  0  0  0  0  0  0  0  0
    2.9901   -3.1812   26.6693 C   0  0  0  0  0  0  0  0  0  0  0  0
    1.8219   -4.1366   26.2831 C   0  0  0  0  0  0  0  0  0  0  0  0
    0.8756   -4.6665   27.3553 N   0  0  0  0  0  0  0  0  0  0  0  0
    0.9515   -4.7847   28.7678 C   0  0  0  0  0  0  0  0  0  0  0  0
    1.6724   -4.0367   29.6348 C   0  0  0  0  0  0  0  0  0  0  0  0
    1.7315   -4.2661   31.0812 C   0  0  0  0  0  0  0  0  0  0  0  0
    1.0012   -5.2454   31.6489 C   0  0  0  0  0  0  0  0  0  0  0  0
    1.3065   -5.7112   33.3024 S   0  0  0  0  0  0  0  0  0  0  0  0
   -0.2561   -5.3935   34.1816 C   0  0  0  0  0  0  0  0  0  0  0  0
   -0.1576   -5.6585   35.6728 C   0  0  0  0  0  0  0  0  0  0  0  0
    0.3544   -6.8549   36.1964 C   0  0  0  0  0  0  0  0  0  0  0  0
    0.4141   -7.0298   37.5732 C   0  0  0  0  0  0  0  0  0  0  0  0
   -0.0375   -6.1193   38.4563 N   0  0  0  0  0  0  0  0  0  0  0  0
   -0.5565   -4.9840   37.9457 C   0  0  0  0  0  0  0  0  0  0  0  0
   -0.6374   -4.7127   36.5855 C   0  0  0  0  0  0  0  0  0  0  0  0
    0.1905   -5.9994   30.7930 N   0  0  0  0  0  0  0  0  0  0  0  0
   -0.6178   -7.0808   31.0327 C   0  0  0  0  0  0  0  0  0  0  0  0
   -1.1210   -7.5354   29.9109 N   0  0  0  0  0  0  0  0  0  0  0  0
   -0.6287   -6.7596   28.8840 N   0  0  0  0  0  0  0  0  0  0  0  0
    0.1454   -5.8232   29.4037 C   0  0  0  0  0  0  0  0  0  0  0  0
    0.0615   -2.7276   22.0720 H   0  0  0  0  0  0  0  0  0  0  0  0
    0.4405   -2.2170   18.8122 H   0  0  0  0  0  0  0  0  0  0  0  0
   -0.4164   -3.3042   26.0444 H   0  0  0  0  0  0  0  0  0  0  0  0
   -0.1923   -2.3599   24.7403 H   0  0  0  0  0  0  0  0  0  0  0  0
   -0.7274   -0.6587   27.3585 H   0  0  0  0  0  0  0  0  0  0  0  0
    1.0055    0.6925   28.8134 H   0  0  0  0  0  0  0  0  0  0  0  0
    3.6808   -3.0366   25.8338 H   0  0  0  0  0  0  0  0  0  0  0  0
    3.5632   -3.5832   27.5098 H   0  0  0  0  0  0  0  0  0  0  0  0
    2.4233   -5.0255   26.0456 H   0  0  0  0  0  0  0  0  0  0  0  0
    0.4464   -5.5466   27.0628 H   0  0  0  0  0  0  0  0  0  0  0  0
    2.2983   -3.2253   29.3007 H   0  0  0  0  0  0  0  0  0  0  0  0
    2.4461   -3.6694   31.6431 H   0  0  0  0  0  0  0  0  0  0  0  0
   -0.5326   -4.3486   34.0027 H   0  0  0  0  0  0  0  0  0  0  0  0
   -1.0535   -6.0222   33.7745 H   0  0  0  0  0  0  0  0  0  0  0  0
    0.7176   -7.6451   35.5499 H   0  0  0  0  0  0  0  0  0  0  0  0
    0.8211   -7.9393   38.0101 H   0  0  0  0  0  0  0  0  0  0  0  0
   -0.9250   -4.2747   38.6822 H   0  0  0  0  0  0  0  0  0  0  0  0
   -1.0719   -3.7745   36.2541 H   0  0  0  0  0  0  0  0  0  0  0  0
   -0.7892   -7.5066   32.0094 H   0  0  0  0  0  0  0  0  0  0  0  0
  1  2  2  0
  2  3  1  0
  3  4  1  0
  3  5  1  0
  2  6  1  0
  6  7  1  0
  7  8  1  0
  8  9  1  0
  9 10  2  0
 10 11  1  0
 11 12  1  0
 12 13  1  0
 13 14  1  0
 14 15  1  0
 15 16  1  0
 16 17  2  0
 17 18  1  0
 18 19  2  0
 19 20  1  0
 20 21  1  0
 21 22  1  0
 22 23  2  0
 23 24  1  0
 24 25  2  0
 25 26  1  0
 26 27  2  0
 19 28  1  0
 28 29  1  0
 29 30  2  0
 30 31  1  0
 31 32  2  0
 14  6  1  0
 32 16  1  0
 12  8  2  0
 27 22  1  0
 32 28  1  0
  3 33  1  0
  4 34  1  0
  7 35  1  0
  7 36  1  0
  9 37  1  0
 10 38  1  0
 13 39  1  0
 13 40  1  0
 14 41  1  0
 15 42  1  0
 17 43  1  0
 18 44  1  0
 21 45  1  0
 21 46  1  0
 23 47  1  0
 24 48  1  0
 26 49  1  0
 27 50  1  0
 29 51  1  0
M  END
>  <Energy>  (507) 
413.66102214060425

>  <compound_id>  (507) 
2385

>  <target_id>  (507) 
1

>  <reference_id>  (507) 
177

>  <inspiration_ids>  (507) 
[177, 150]

>  <energy_score>  (507) 
263.6291299034091

>  <distance_score>  (507) 
4.906724114514607

>  <path>  (507) 
/opt/xchem-fragalysis-2/maxwin/BulkDock/SCRATCH/505736/C2385-P177/C2385-P177.minimised.mol

>  <scratch_subdir>  (507) 
/opt/xchem-fragalysis-2/maxwin/BulkDock/SCRATCH/505736/C2385-P177

>  <fragmenstein_runtime>  (507) 
16.10558271408081

>  <fragmenstein_outcome>  (507) 
too moved

>  <fragmenstein_mode>  (507) 
expansion

>  <fragmenstein_error>  (507) 


$$$$
C2385-P150
     RDKit          3D

 51 55  0  0  0  0  0  0  0  0999 V2000
    2.7548   -6.3811   25.4676 O   0  0  0  0  0  0  0  0  0  0  0  0
    2.0314   -5.4361   25.6956 C   0  0  0  0  0  0  0  0  0  0  0  0
    0.5738   -5.0594   24.2731 C   0  0  0  0  0  0  0  0  0  0  0  0
    1.0770   -3.5721   22.8412 S   0  0  0  0  0  0  0  0  0  0  0  0
   -1.5258   -5.4445   24.2666 Cl  0  0  0  0  0  0  0  0  0  0  0  0
    1.9860   -4.5866   26.9143 N   0  0  0  0  0  0  0  0  0  0  0  0
    2.9500   -3.3614   26.7580 C   0  0  0  0  0  0  0  0  0  0  0  0
    4.4182   -3.2966   27.0671 C   0  0  0  0  0  0  0  0  0  0  0  0
    5.3370   -2.2676   26.7303 C   0  0  0  0  0  0  0  0  0  0  0  0
    6.6058   -2.5346   27.2074 C   0  0  0  0  0  0  0  0  0  0  0  0
    6.6549   -3.9937   28.1127 S   0  0  0  0  0  0  0  0  0  0  0  0
    5.0179   -4.2341   27.8409 C   0  0  0  0  0  0  0  0  0  0  0  0
    4.1638   -5.2729   28.3847 C   0  0  0  0  0  0  0  0  0  0  0  0
    2.7126   -4.7089   28.2383 C   0  0  0  0  0  0  0  0  0  0  0  0
    2.2253   -3.7904   29.3019 N   0  0  0  0  0  0  0  0  0  0  0  0
    1.8216   -4.2349   30.5840 C   0  0  0  0  0  0  0  0  0  0  0  0
    2.3424   -3.6423   31.6876 C   0  0  0  0  0  0  0  0  0  0  0  0
    2.1623   -4.1573   33.0374 C   0  0  0  0  0  0  0  0  0  0  0  0
    1.3852   -5.2357   33.2451 C   0  0  0  0  0  0  0  0  0  0  0  0
    1.4273   -6.0503   34.7727 S   0  0  0  0  0  0  0  0  0  0  0  0
   -0.1172   -5.5183   35.5799 C   0  0  0  0  0  0  0  0  0  0  0  0
   -0.0828   -5.8403   37.0565 C   0  0  0  0  0  0  0  0  0  0  0  0
   -0.1905   -4.8360   38.0235 C   0  0  0  0  0  0  0  0  0  0  0  0
   -0.1133   -5.1827   39.3667 C   0  0  0  0  0  0  0  0  0  0  0  0
    0.0697   -6.4422   39.8097 N   0  0  0  0  0  0  0  0  0  0  0  0
    0.1600   -7.4002   38.8671 C   0  0  0  0  0  0  0  0  0  0  0  0
    0.0684   -7.1559   37.5051 C   0  0  0  0  0  0  0  0  0  0  0  0
    0.7192   -5.7790   32.1429 N   0  0  0  0  0  0  0  0  0  0  0  0
   -0.1632   -6.8255   32.0468 C   0  0  0  0  0  0  0  0  0  0  0  0
   -0.5198   -7.0089   30.7989 N   0  0  0  0  0  0  0  0  0  0  0  0
    0.1477   -6.0760   30.0400 N   0  0  0  0  0  0  0  0  0  0  0  0
    0.8938   -5.3287   30.8310 C   0  0  0  0  0  0  0  0  0  0  0  0
    0.6551   -5.8031   23.5098 H   0  0  0  0  0  0  0  0  0  0  0  0
    0.1058   -2.6700   23.0463 H   0  0  0  0  0  0  0  0  0  0  0  0
    2.4592   -2.4836   27.1993 H   0  0  0  0  0  0  0  0  0  0  0  0
    3.0326   -3.2758   25.6717 H   0  0  0  0  0  0  0  0  0  0  0  0
    5.0850   -1.3876   26.1515 H   0  0  0  0  0  0  0  0  0  0  0  0
    7.5052   -1.9496   27.0730 H   0  0  0  0  0  0  0  0  0  0  0  0
    4.2777   -6.2042   27.8187 H   0  0  0  0  0  0  0  0  0  0  0  0
    4.4054   -5.4628   29.4320 H   0  0  0  0  0  0  0  0  0  0  0  0
    2.2247   -5.6437   28.5408 H   0  0  0  0  0  0  0  0  0  0  0  0
    2.8517   -2.9914   29.3811 H   0  0  0  0  0  0  0  0  0  0  0  0
    3.0369   -2.8105   31.5959 H   0  0  0  0  0  0  0  0  0  0  0  0
    2.7620   -3.7104   33.8264 H   0  0  0  0  0  0  0  0  0  0  0  0
   -0.2514   -4.4420   35.4275 H   0  0  0  0  0  0  0  0  0  0  0  0
   -0.9658   -6.0324   35.1178 H   0  0  0  0  0  0  0  0  0  0  0  0
   -0.3205   -3.7949   37.7468 H   0  0  0  0  0  0  0  0  0  0  0  0
   -0.1917   -4.4274   40.1438 H   0  0  0  0  0  0  0  0  0  0  0  0
    0.2928   -8.4117   39.2405 H   0  0  0  0  0  0  0  0  0  0  0  0
    0.1182   -7.9916   36.8152 H   0  0  0  0  0  0  0  0  0  0  0  0
   -0.5046   -7.4065   32.8920 H   0  0  0  0  0  0  0  0  0  0  0  0
  1  2  2  0
  2  3  1  0
  3  4  1  0
  3  5  1  0
  2  6  1  0
  6  7  1  0
  7  8  1  0
  8  9  1  0
  9 10  2  0
 10 11  1  0
 11 12  1  0
 12 13  1  0
 13 14  1  0
 14 15  1  0
 15 16  1  0
 16 17  2  0
 17 18  1  0
 18 19  2  0
 19 20  1  0
 20 21  1  0
 21 22  1  0
 22 23  2  0
 23 24  1  0
 24 25  2  0
 25 26  1  0
 26 27  2  0
 19 28  1  0
 28 29  1  0
 29 30  2  0
 30 31  1  0
 31 32  2  0
 14  6  1  0
 32 16  1  0
 12  8  2  0
 27 22  1  0
 32 28  1  0
  3 33  1  0
  4 34  1  0
  7 35  1  0
  7 36  1  0
  9 37  1  0
 10 38  1  0
 13 39  1  0
 13 40  1  0
 14 41  1  0
 15 42  1  0
 17 43  1  0
 18 44  1  0
 21 45  1  0
 21 46  1  0
 23 47  1  0
 24 48  1  0
 26 49  1  0
 27 50  1  0
 29 51  1  0
M  END
>  <Energy>  (508) 
303.72313118720956

>  <compound_id>  (508) 
2385

>  <target_id>  (508) 
1

>  <reference_id>  (508) 
150

>  <inspiration_ids>  (508) 
[177, 150]

>  <energy_score>  (508) 
153.69123895002429

>  <distance_score>  (508) 
4.764826138698027

>  <path>  (508) 
/opt/xchem-fragalysis-2/maxwin/BulkDock/SCRATCH/505736/C2385-P150/C2385-P150.minimised.mol

>  <scratch_subdir>  (508) 
/opt/xchem-fragalysis-2/maxwin/BulkDock/SCRATCH/505736/C2385-P150

>  <fragmenstein_runtime>  (508) 
17.478320360183716

>  <fragmenstein_outcome>  (508) 
too moved

>  <fragmenstein_mode>  (508) 
expansion

>  <fragmenstein_error>  (508) 


$$$$
C2418-P177
     RDKit          3D

 51 55  0  0  0  0  0  0  0  0999 V2000
   -0.3361   -2.2846   22.8463 O   0  0  0  0  0  0  0  0  0  0  0  0
    0.6734   -2.9296   22.6992 C   0  0  0  0  0  0  0  0  0  0  0  0
    1.0654   -3.3717   20.7978 C   0  0  0  0  0  0  0  0  0  0  0  0
    0.9126   -2.2704   18.5220 S   0  0  0  0  0  0  0  0  0  0  0  0
    1.4480   -1.4362   19.3117 Cl  0  0  0  0  0  0  0  0  0  0  0  0
    1.6076   -3.5349   23.9794 N   0  0  0  0  0  0  0  0  0  0  0  0
    2.6647   -2.5626   24.3876 C   0  0  0  0  0  0  0  0  0  0  0  0
    3.7710   -2.9157   25.3838 C   0  0  0  0  0  0  0  0  0  0  0  0
    4.9743   -2.2095   25.5979 C   0  0  0  0  0  0  0  0  0  0  0  0
    5.7497   -2.7567   26.5994 C   0  0  0  0  0  0  0  0  0  0  0  0
    4.9598   -4.0851   27.3478 S   0  0  0  0  0  0  0  0  0  0  0  0
    3.6457   -3.8882   26.3219 C   0  0  0  0  0  0  0  0  0  0  0  0
    2.3703   -4.5924   26.3482 C   0  0  0  0  0  0  0  0  0  0  0  0
    1.3447   -3.5236   25.6362 C   0  0  0  0  0  0  0  0  0  0  0  0
    1.0634   -2.4754   26.7290 N   0  0  0  0  0  0  0  0  0  0  0  0
    0.6550   -3.0294   28.0266 C   0  0  0  0  0  0  0  0  0  0  0  0
    1.2023   -2.4765   29.2986 C   0  0  0  0  0  0  0  0  0  0  0  0
    1.0193   -3.1112   30.4955 C   0  0  0  0  0  0  0  0  0  0  0  0
    1.5451   -2.4064   32.0049 S   0  0  0  0  0  0  0  0  0  0  0  0
    2.5721   -3.6879   32.8133 C   0  0  0  0  0  0  0  0  0  0  0  0
    2.0390   -4.2900   34.1030 C   0  0  0  0  0  0  0  0  0  0  0  0
    2.5735   -5.5099   34.5506 C   0  0  0  0  0  0  0  0  0  0  0  0
    2.1017   -6.0694   35.7304 C   0  0  0  0  0  0  0  0  0  0  0  0
    1.1390   -5.5081   36.4854 N   0  0  0  0  0  0  0  0  0  0  0  0
    0.6572   -4.3189   36.0715 C   0  0  0  0  0  0  0  0  0  0  0  0
    1.0786   -3.6754   34.9160 C   0  0  0  0  0  0  0  0  0  0  0  0
    0.3368   -4.3352   30.4944 N   0  0  0  0  0  0  0  0  0  0  0  0
   -0.0465   -5.2159   31.4781 C   0  0  0  0  0  0  0  0  0  0  0  0
   -0.4591   -6.3457   30.9482 N   0  0  0  0  0  0  0  0  0  0  0  0
   -0.4584   -6.1768   29.5855 N   0  0  0  0  0  0  0  0  0  0  0  0
   -0.1165   -4.9277   29.3368 C   0  0  0  0  0  0  0  0  0  0  0  0
   -0.0773   -4.1719   28.1371 C   0  0  0  0  0  0  0  0  0  0  0  0
    0.5602   -4.2771   20.4121 H   0  0  0  0  0  0  0  0  0  0  0  0
   -0.4139   -2.1590   18.5176 H   0  0  0  0  0  0  0  0  0  0  0  0
    3.2845   -2.4805   23.5414 H   0  0  0  0  0  0  0  0  0  0  0  0
    2.2250   -1.6553   24.7440 H   0  0  0  0  0  0  0  0  0  0  0  0
    5.2214   -1.3393   25.0160 H   0  0  0  0  0  0  0  0  0  0  0  0
    6.7249   -2.4343   26.9368 H   0  0  0  0  0  0  0  0  0  0  0  0
    2.1175   -4.8947   27.3622 H   0  0  0  0  0  0  0  0  0  0  0  0
    2.5650   -5.5029   25.7969 H   0  0  0  0  0  0  0  0  0  0  0  0
    0.2842   -3.6998   25.5170 H   0  0  0  0  0  0  0  0  0  0  0  0
    0.3172   -1.8532   26.4165 H   0  0  0  0  0  0  0  0  0  0  0  0
    1.7244   -1.5261   29.2225 H   0  0  0  0  0  0  0  0  0  0  0  0
    3.5317   -3.2127   33.0478 H   0  0  0  0  0  0  0  0  0  0  0  0
    2.7818   -4.4860   32.0924 H   0  0  0  0  0  0  0  0  0  0  0  0
    3.3560   -6.0163   33.9953 H   0  0  0  0  0  0  0  0  0  0  0  0
    2.4957   -7.0073   36.1108 H   0  0  0  0  0  0  0  0  0  0  0  0
   -0.1005   -3.8769   36.7136 H   0  0  0  0  0  0  0  0  0  0  0  0
    0.6428   -2.7115   34.6731 H   0  0  0  0  0  0  0  0  0  0  0  0
    0.0004   -5.0048   32.5336 H   0  0  0  0  0  0  0  0  0  0  0  0
   -0.5614   -4.6372   27.2925 H   0  0  0  0  0  0  0  0  0  0  0  0
  1  2  2  0
  2  3  1  0
  3  4  1  0
  3  5  1  0
  2  6  1  0
  6  7  1  0
  7  8  1  0
  8  9  1  0
  9 10  2  0
 10 11  1  0
 11 12  1  0
 12 13  1  0
 13 14  1  0
 14 15  1  0
 15 16  1  0
 16 17  1  0
 17 18  2  0
 18 19  1  0
 19 20  1  0
 20 21  1  0
 21 22  2  0
 22 23  1  0
 23 24  2  0
 24 25  1  0
 25 26  2  0
 18 27  1  0
 27 28  1  0
 28 29  2  0
 29 30  1  0
 30 31  2  0
 31 32  1  0
 14  6  1  0
 32 16  2  0
 12  8  2  0
 26 21  1  0
 31 27  1  0
  3 33  1  0
  4 34  1  0
  7 35  1  0
  7 36  1  0
  9 37  1  0
 10 38  1  0
 13 39  1  0
 13 40  1  0
 14 41  1  0
 15 42  1  0
 17 43  1  0
 20 44  1  0
 20 45  1  0
 22 46  1  0
 23 47  1  0
 25 48  1  0
 26 49  1  0
 28 50  1  0
 32 51  1  0
M  END
>  <Energy>  (509) 
640.97602989416191

>  <compound_id>  (509) 
2418

>  <target_id>  (509) 
1

>  <reference_id>  (509) 
177

>  <inspiration_ids>  (509) 
[177, 152]

>  <energy_score>  (509) 
507.53155648465025

>  <distance_score>  (509) 
5.067251868287356

>  <path>  (509) 
/opt/xchem-fragalysis-2/maxwin/BulkDock/SCRATCH/505736/C2418-P177/C2418-P177.minimised.mol

>  <scratch_subdir>  (509) 
/opt/xchem-fragalysis-2/maxwin/BulkDock/SCRATCH/505736/C2418-P177

>  <fragmenstein_runtime>  (509) 
14.744527101516724

>  <fragmenstein_outcome>  (509) 
too moved

>  <fragmenstein_mode>  (509) 
expansion

>  <fragmenstein_error>  (509) 


$$$$
C2418-P152
     RDKit          3D

 51 55  0  0  0  0  0  0  0  0999 V2000
   -0.2054   -5.2948   24.6266 O   0  0  0  0  0  0  0  0  0  0  0  0
    0.9520   -5.0563   24.3986 C   0  0  0  0  0  0  0  0  0  0  0  0
    1.1135   -4.5548   22.9048 C   0  0  0  0  0  0  0  0  0  0  0  0
    1.1638   -4.7078   21.2527 S   0  0  0  0  0  0  0  0  0  0  0  0
    1.0603   -2.9350   22.7492 Cl  0  0  0  0  0  0  0  0  0  0  0  0
    2.3784   -5.0690   25.5436 N   0  0  0  0  0  0  0  0  0  0  0  0
    3.0768   -6.5243   25.5786 C   0  0  0  0  0  0  0  0  0  0  0  0
    4.5241   -6.3563   25.9520 C   0  0  0  0  0  0  0  0  0  0  0  0
    5.6757   -6.9432   25.3595 C   0  0  0  0  0  0  0  0  0  0  0  0
    6.8309   -6.5756   26.0183 C   0  0  0  0  0  0  0  0  0  0  0  0
    6.5234   -5.5413   27.3474 S   0  0  0  0  0  0  0  0  0  0  0  0
    4.8707   -5.5740   27.0190 C   0  0  0  0  0  0  0  0  0  0  0  0
    3.8638   -4.8250   27.7782 C   0  0  0  0  0  0  0  0  0  0  0  0
    2.4284   -5.3014   27.3189 C   0  0  0  0  0  0  0  0  0  0  0  0
    1.5369   -4.4062   28.1869 N   0  0  0  0  0  0  0  0  0  0  0  0
    1.1563   -4.8246   29.5129 C   0  0  0  0  0  0  0  0  0  0  0  0
    1.9586   -4.6311   30.7422 C   0  0  0  0  0  0  0  0  0  0  0  0
    1.5535   -5.1260   31.9582 C   0  0  0  0  0  0  0  0  0  0  0  0
    2.5064   -4.7246   33.3733 S   0  0  0  0  0  0  0  0  0  0  0  0
    1.5817   -5.2319   34.8358 C   0  0  0  0  0  0  0  0  0  0  0  0
    2.1295   -4.7064   36.1319 C   0  0  0  0  0  0  0  0  0  0  0  0
    3.1067   -5.4149   36.8409 C   0  0  0  0  0  0  0  0  0  0  0  0
    3.5218   -4.9221   38.0659 C   0  0  0  0  0  0  0  0  0  0  0  0
    3.0393   -3.7884   38.6154 N   0  0  0  0  0  0  0  0  0  0  0  0
    2.1082   -3.1118   37.9123 C   0  0  0  0  0  0  0  0  0  0  0  0
    1.6290   -3.5230   36.6816 C   0  0  0  0  0  0  0  0  0  0  0  0
    0.4044   -5.9509   31.9743 N   0  0  0  0  0  0  0  0  0  0  0  0
   -0.2066   -6.7945   32.8718 C   0  0  0  0  0  0  0  0  0  0  0  0
   -1.1757   -7.4774   32.3063 N   0  0  0  0  0  0  0  0  0  0  0  0
   -1.2712   -7.0525   31.0213 N   0  0  0  0  0  0  0  0  0  0  0  0
   -0.3789   -6.1040   30.8501 C   0  0  0  0  0  0  0  0  0  0  0  0
   -0.0697   -5.3374   29.7119 C   0  0  0  0  0  0  0  0  0  0  0  0
    0.4588   -5.3315   22.6840 H   0  0  0  0  0  0  0  0  0  0  0  0
    1.9295   -5.7396   20.9232 H   0  0  0  0  0  0  0  0  0  0  0  0
    2.6692   -7.2747   26.2674 H   0  0  0  0  0  0  0  0  0  0  0  0
    3.0546   -7.0595   24.6437 H   0  0  0  0  0  0  0  0  0  0  0  0
    5.6720   -7.5902   24.4893 H   0  0  0  0  0  0  0  0  0  0  0  0
    7.8484   -6.8523   25.7829 H   0  0  0  0  0  0  0  0  0  0  0  0
    3.9748   -3.7497   27.5884 H   0  0  0  0  0  0  0  0  0  0  0  0
    4.0018   -4.9965   28.8505 H   0  0  0  0  0  0  0  0  0  0  0  0
    2.2355   -6.3221   27.6564 H   0  0  0  0  0  0  0  0  0  0  0  0
    0.6424   -4.2729   27.7086 H   0  0  0  0  0  0  0  0  0  0  0  0
    2.8266   -3.9815   30.6537 H   0  0  0  0  0  0  0  0  0  0  0  0
    1.6256   -6.3222   34.9046 H   0  0  0  0  0  0  0  0  0  0  0  0
    0.5355   -4.9203   34.7483 H   0  0  0  0  0  0  0  0  0  0  0  0
    3.5329   -6.3372   36.4619 H   0  0  0  0  0  0  0  0  0  0  0  0
    4.2720   -5.4396   38.6571 H   0  0  0  0  0  0  0  0  0  0  0  0
    1.7432   -2.2029   38.3824 H   0  0  0  0  0  0  0  0  0  0  0  0
    0.8700   -2.9348   36.1756 H   0  0  0  0  0  0  0  0  0  0  0  0
    0.0687   -6.9480   33.8963 H   0  0  0  0  0  0  0  0  0  0  0  0
   -0.8025   -5.3067   28.9258 H   0  0  0  0  0  0  0  0  0  0  0  0
  1  2  2  0
  2  3  1  0
  3  4  1  0
  3  5  1  0
  2  6  1  0
  6  7  1  0
  7  8  1  0
  8  9  1  0
  9 10  2  0
 10 11  1  0
 11 12  1  0
 12 13  1  0
 13 14  1  0
 14 15  1  0
 15 16  1  0
 16 17  1  0
 17 18  2  0
 18 19  1  0
 19 20  1  0
 20 21  1  0
 21 22  2  0
 22 23  1  0
 23 24  2  0
 24 25  1  0
 25 26  2  0
 18 27  1  0
 27 28  1  0
 28 29  2  0
 29 30  1  0
 30 31  2  0
 31 32  1  0
 14  6  1  0
 32 16  2  0
 12  8  2  0
 26 21  1  0
 31 27  1  0
  3 33  1  0
  4 34  1  0
  7 35  1  0
  7 36  1  0
  9 37  1  0
 10 38  1  0
 13 39  1  0
 13 40  1  0
 14 41  1  0
 15 42  1  0
 17 43  1  0
 20 44  1  0
 20 45  1  0
 22 46  1  0
 23 47  1  0
 25 48  1  0
 26 49  1  0
 28 50  1  0
 32 51  1  0
M  END
>  <Energy>  (510) 
361.57062552913681

>  <compound_id>  (510) 
2418

>  <target_id>  (510) 
1

>  <reference_id>  (510) 
152

>  <inspiration_ids>  (510) 
[177, 152]

>  <energy_score>  (510) 
228.1261521196235

>  <distance_score>  (510) 
4.745306774023492

>  <path>  (510) 
/opt/xchem-fragalysis-2/maxwin/BulkDock/SCRATCH/505736/C2418-P152/C2418-P152.minimised.mol

>  <scratch_subdir>  (510) 
/opt/xchem-fragalysis-2/maxwin/BulkDock/SCRATCH/505736/C2418-P152

>  <fragmenstein_runtime>  (510) 
12.681428670883179

>  <fragmenstein_outcome>  (510) 
too moved

>  <fragmenstein_mode>  (510) 
expansion

>  <fragmenstein_error>  (510) 


$$$$
C2456-P177
     RDKit          3D

 51 56  0  0  0  0  0  0  0  0999 V2000
    0.7510   -4.4893   20.9861 O   0  0  0  0  0  0  0  0  0  0  0  0
    0.9556   -3.3035   21.2540 C   0  0  0  0  0  0  0  0  0  0  0  0
    1.2224   -1.8629   19.6060 C   0  0  0  0  0  0  0  0  0  0  0  0
    0.1983   -1.3639   18.0226 S   0  0  0  0  0  0  0  0  0  0  0  0
    2.5094   -2.3123   17.8138 Cl  0  0  0  0  0  0  0  0  0  0  0  0
    0.9431   -2.6709   23.0006 N   0  0  0  0  0  0  0  0  0  0  0  0
    2.3439   -2.7416   23.5975 C   0  0  0  0  0  0  0  0  0  0  0  0
    3.3987   -2.8510   24.6565 C   0  0  0  0  0  0  0  0  0  0  0  0
    4.6648   -2.2546   24.8606 C   0  0  0  0  0  0  0  0  0  0  0  0
    5.3304   -2.7397   25.9724 C   0  0  0  0  0  0  0  0  0  0  0  0
    4.3657   -3.8668   26.8231 S   0  0  0  0  0  0  0  0  0  0  0  0
    3.1365   -3.6218   25.7094 C   0  0  0  0  0  0  0  0  0  0  0  0
    1.7459   -3.9104   25.8610 C   0  0  0  0  0  0  0  0  0  0  0  0
    0.5422   -3.4753   24.5486 C   0  0  0  0  0  0  0  0  0  0  0  0
   -0.4362   -2.7353   25.7135 N   0  0  0  0  0  0  0  0  0  0  0  0
   -0.5177   -3.4188   27.0978 C   0  0  0  0  0  0  0  0  0  0  0  0
   -0.0622   -2.7609   28.3863 C   0  0  0  0  0  0  0  0  0  0  0  0
    0.0775   -3.4490   29.5776 C   0  0  0  0  0  0  0  0  0  0  0  0
    0.5097   -2.5641   31.0443 S   0  0  0  0  0  0  0  0  0  0  0  0
    0.7288   -3.6280   32.4492 C   0  0  0  0  0  0  0  0  0  0  0  0
    1.6496   -4.5438   32.4110 N   0  0  0  0  0  0  0  0  0  0  0  0
    1.7886   -5.4167   33.4916 C   0  0  0  0  0  0  0  0  0  0  0  0
    2.5001   -6.4144   33.4419 O   0  0  0  0  0  0  0  0  0  0  0  0
    0.9688   -5.0875   34.6329 C   0  0  0  0  0  0  0  0  0  0  0  0
    1.0085   -5.9255   36.1113 S   0  0  0  0  0  0  0  0  0  0  0  0
   -0.2264   -4.9236   36.7627 C   0  0  0  0  0  0  0  0  0  0  0  0
   -0.6580   -3.9765   35.8522 C   0  0  0  0  0  0  0  0  0  0  0  0
    0.0396   -4.0856   34.6230 C   0  0  0  0  0  0  0  0  0  0  0  0
   -0.1248   -3.3562   33.4996 N   0  0  0  0  0  0  0  0  0  0  0  0
   -0.1810   -4.8357   29.5615 N   0  0  0  0  0  0  0  0  0  0  0  0
   -0.2715   -5.8312   30.5085 C   0  0  0  0  0  0  0  0  0  0  0  0
   -0.5566   -6.9930   29.9651 N   0  0  0  0  0  0  0  0  0  0  0  0
   -0.7121   -6.7830   28.6272 N   0  0  0  0  0  0  0  0  0  0  0  0
   -0.5569   -5.4948   28.4050 C   0  0  0  0  0  0  0  0  0  0  0  0
   -0.8118   -4.7360   27.2429 C   0  0  0  0  0  0  0  0  0  0  0  0
    1.8105   -1.0478   19.7156 H   0  0  0  0  0  0  0  0  0  0  0  0
   -0.7719   -2.2651   18.2193 H   0  0  0  0  0  0  0  0  0  0  0  0
    2.3545   -3.7527   23.3061 H   0  0  0  0  0  0  0  0  0  0  0  0
    1.9332   -2.0525   24.3461 H   0  0  0  0  0  0  0  0  0  0  0  0
    5.0707   -1.5069   24.2081 H   0  0  0  0  0  0  0  0  0  0  0  0
    6.3179   -2.4785   26.3257 H   0  0  0  0  0  0  0  0  0  0  0  0
    1.5866   -3.1418   26.6231 H   0  0  0  0  0  0  0  0  0  0  0  0
    1.6322   -4.8569   26.3898 H   0  0  0  0  0  0  0  0  0  0  0  0
   -0.2595   -4.0910   24.1803 H   0  0  0  0  0  0  0  0  0  0  0  0
   -1.3796   -2.8117   25.3191 H   0  0  0  0  0  0  0  0  0  0  0  0
    0.1256   -1.6925   28.3112 H   0  0  0  0  0  0  0  0  0  0  0  0
   -0.5781   -5.0821   37.7744 H   0  0  0  0  0  0  0  0  0  0  0  0
   -1.4441   -3.2635   36.0691 H   0  0  0  0  0  0  0  0  0  0  0  0
   -0.7611   -2.5703   33.4256 H   0  0  0  0  0  0  0  0  0  0  0  0
   -0.1960   -5.6984   31.5675 H   0  0  0  0  0  0  0  0  0  0  0  0
   -1.2941   -5.2950   26.4519 H   0  0  0  0  0  0  0  0  0  0  0  0
  1  2  2  0
  2  3  1  0
  3  4  1  0
  3  5  1  0
  2  6  1  0
  6  7  1  0
  7  8  1  0
  8  9  1  0
  9 10  2  0
 10 11  1  0
 11 12  1  0
 12 13  1  0
 13 14  1  0
 14 15  1  0
 15 16  1  0
 16 17  1  0
 17 18  2  0
 18 19  1  0
 19 20  1  0
 20 21  2  0
 21 22  1  0
 22 23  2  0
 22 24  1  0
 24 25  1  0
 25 26  1  0
 26 27  2  0
 27 28  1  0
 28 29  1  0
 18 30  1  0
 30 31  1  0
 31 32  2  0
 32 33  1  0
 33 34  2  0
 34 35  1  0
 14  6  1  0
 35 16  2  0
 12  8  2  0
 29 20  1  0
 34 30  1  0
 28 24  2  0
  3 36  1  0
  4 37  1  0
  7 38  1  0
  7 39  1  0
  9 40  1  0
 10 41  1  0
 13 42  1  0
 13 43  1  0
 14 44  1  0
 15 45  1  0
 17 46  1  0
 26 47  1  0
 27 48  1  0
 29 49  1  0
 31 50  1  0
 35 51  1  0
M  END
>  <Energy>  (511) 
589.95681528619582

>  <compound_id>  (511) 
2456

>  <target_id>  (511) 
1

>  <reference_id>  (511) 
177

>  <inspiration_ids>  (511) 
[177, 153]

>  <energy_score>  (511) 
497.3745308242717

>  <distance_score>  (511) 
5.162083740951091

>  <path>  (511) 
/opt/xchem-fragalysis-2/maxwin/BulkDock/SCRATCH/505736/C2456-P177/C2456-P177.minimised.mol

>  <scratch_subdir>  (511) 
/opt/xchem-fragalysis-2/maxwin/BulkDock/SCRATCH/505736/C2456-P177

>  <fragmenstein_runtime>  (511) 
13.012058019638062

>  <fragmenstein_outcome>  (511) 
too moved

>  <fragmenstein_mode>  (511) 
expansion

>  <fragmenstein_error>  (511) 


$$$$
C2456-P153
     RDKit          3D

 51 56  0  0  0  0  0  0  0  0999 V2000
    1.2783   -6.5908   23.7517 O   0  0  0  0  0  0  0  0  0  0  0  0
    1.2048   -5.5566   24.3813 C   0  0  0  0  0  0  0  0  0  0  0  0
    0.4845   -4.5584   23.5883 C   0  0  0  0  0  0  0  0  0  0  0  0
    1.2311   -3.2385   22.6950 S   0  0  0  0  0  0  0  0  0  0  0  0
    1.0012   -5.1235   21.5733 Cl  0  0  0  0  0  0  0  0  0  0  0  0
    1.9628   -5.2156   25.9371 N   0  0  0  0  0  0  0  0  0  0  0  0
    3.4776   -4.5392   25.7141 C   0  0  0  0  0  0  0  0  0  0  0  0
    4.8127   -5.2392   25.8163 C   0  0  0  0  0  0  0  0  0  0  0  0
    6.0931   -4.6530   25.9979 C   0  0  0  0  0  0  0  0  0  0  0  0
    7.0441   -5.6020   26.3248 C   0  0  0  0  0  0  0  0  0  0  0  0
    6.4145   -7.1912   26.3241 S   0  0  0  0  0  0  0  0  0  0  0  0
    4.8835   -6.5893   26.0104 C   0  0  0  0  0  0  0  0  0  0  0  0
    3.6104   -7.2779   26.1901 C   0  0  0  0  0  0  0  0  0  0  0  0
    2.7927   -6.1703   26.9246 C   0  0  0  0  0  0  0  0  0  0  0  0
    2.2581   -6.7155   28.2703 N   0  0  0  0  0  0  0  0  0  0  0  0
    1.4705   -6.2001   29.3679 C   0  0  0  0  0  0  0  0  0  0  0  0
    1.8591   -5.0487   30.2147 C   0  0  0  0  0  0  0  0  0  0  0  0
    1.2520   -4.8260   31.4204 C   0  0  0  0  0  0  0  0  0  0  0  0
    1.8730   -3.6096   32.5169 S   0  0  0  0  0  0  0  0  0  0  0  0
    1.6108   -4.2910   34.1369 C   0  0  0  0  0  0  0  0  0  0  0  0
    0.6799   -3.7398   34.8451 N   0  0  0  0  0  0  0  0  0  0  0  0
    0.3348   -4.2943   36.0715 C   0  0  0  0  0  0  0  0  0  0  0  0
   -0.5787   -3.8487   36.7520 O   0  0  0  0  0  0  0  0  0  0  0  0
    1.1268   -5.4451   36.4363 C   0  0  0  0  0  0  0  0  0  0  0  0
    0.9101   -6.3297   37.8684 S   0  0  0  0  0  0  0  0  0  0  0  0
    2.1799   -7.4053   37.4472 C   0  0  0  0  0  0  0  0  0  0  0  0
    2.7619   -7.0779   36.2366 C   0  0  0  0  0  0  0  0  0  0  0  0
    2.1303   -5.9512   35.6552 C   0  0  0  0  0  0  0  0  0  0  0  0
    2.3976   -5.3681   34.4694 N   0  0  0  0  0  0  0  0  0  0  0  0
    0.1720   -5.6503   31.7897 N   0  0  0  0  0  0  0  0  0  0  0  0
   -0.7580   -5.6319   32.7958 C   0  0  0  0  0  0  0  0  0  0  0  0
   -1.4213   -6.7648   32.8273 N   0  0  0  0  0  0  0  0  0  0  0  0
   -1.0715   -7.4798   31.7199 N   0  0  0  0  0  0  0  0  0  0  0  0
   -0.1607   -6.7829   31.0856 C   0  0  0  0  0  0  0  0  0  0  0  0
    0.5476   -7.0508   29.9080 C   0  0  0  0  0  0  0  0  0  0  0  0
   -0.5620   -4.8294   23.6900 H   0  0  0  0  0  0  0  0  0  0  0  0
    2.4994   -3.3545   23.0607 H   0  0  0  0  0  0  0  0  0  0  0  0
    3.4373   -3.9278   24.8271 H   0  0  0  0  0  0  0  0  0  0  0  0
    3.4888   -3.7684   26.5078 H   0  0  0  0  0  0  0  0  0  0  0  0
    6.3211   -3.5950   25.9470 H   0  0  0  0  0  0  0  0  0  0  0  0
    8.0931   -5.4389   26.5342 H   0  0  0  0  0  0  0  0  0  0  0  0
    3.6992   -8.1761   26.7743 H   0  0  0  0  0  0  0  0  0  0  0  0
    3.2235   -7.5739   25.2165 H   0  0  0  0  0  0  0  0  0  0  0  0
    3.4228   -5.4767   27.5069 H   0  0  0  0  0  0  0  0  0  0  0  0
    3.1590   -6.8293   28.7492 H   0  0  0  0  0  0  0  0  0  0  0  0
    2.6975   -4.4447   29.8808 H   0  0  0  0  0  0  0  0  0  0  0  0
    2.4271   -8.2243   38.1100 H   0  0  0  0  0  0  0  0  0  0  0  0
    3.5824   -7.6392   35.8096 H   0  0  0  0  0  0  0  0  0  0  0  0
    3.1690   -5.6171   33.8659 H   0  0  0  0  0  0  0  0  0  0  0  0
   -0.9416   -4.7975   33.4545 H   0  0  0  0  0  0  0  0  0  0  0  0
    0.3660   -8.0467   29.5067 H   0  0  0  0  0  0  0  0  0  0  0  0
  1  2  2  0
  2  3  1  0
  3  4  1  0
  3  5  1  0
  2  6  1  0
  6  7  1  0
  7  8  1  0
  8  9  1  0
  9 10  2  0
 10 11  1  0
 11 12  1  0
 12 13  1  0
 13 14  1  0
 14 15  1  0
 15 16  1  0
 16 17  1  0
 17 18  2  0
 18 19  1  0
 19 20  1  0
 20 21  2  0
 21 22  1  0
 22 23  2  0
 22 24  1  0
 24 25  1  0
 25 26  1  0
 26 27  2  0
 27 28  1  0
 28 29  1  0
 18 30  1  0
 30 31  1  0
 31 32  2  0
 32 33  1  0
 33 34  2  0
 34 35  1  0
 14  6  1  0
 35 16  2  0
 12  8  2  0
 29 20  1  0
 34 30  1  0
 28 24  2  0
  3 36  1  0
  4 37  1  0
  7 38  1  0
  7 39  1  0
  9 40  1  0
 10 41  1  0
 13 42  1  0
 13 43  1  0
 14 44  1  0
 15 45  1  0
 17 46  1  0
 26 47  1  0
 27 48  1  0
 29 49  1  0
 31 50  1  0
 35 51  1  0
M  END
>  <Energy>  (512) 
270.30498175446644

>  <compound_id>  (512) 
2456

>  <target_id>  (512) 
1

>  <reference_id>  (512) 
153

>  <inspiration_ids>  (512) 
[177, 153]

>  <energy_score>  (512) 
177.7226972925509

>  <distance_score>  (512) 
4.728489033835412

>  <path>  (512) 
/opt/xchem-fragalysis-2/maxwin/BulkDock/SCRATCH/505736/C2456-P153/C2456-P153.minimised.mol

>  <scratch_subdir>  (512) 
/opt/xchem-fragalysis-2/maxwin/BulkDock/SCRATCH/505736/C2456-P153

>  <fragmenstein_runtime>  (512) 
20.02200937271118

>  <fragmenstein_outcome>  (512) 
too moved

>  <fragmenstein_mode>  (512) 
expansion

>  <fragmenstein_error>  (512) 


$$$$
C2456-P177
     RDKit          3D

 51 56  0  0  0  0  0  0  0  0999 V2000
    0.9620   -4.4989   20.9183 O   0  0  0  0  0  0  0  0  0  0  0  0
    0.9897   -3.3063   21.2388 C   0  0  0  0  0  0  0  0  0  0  0  0
    1.1152   -1.7957   19.6486 C   0  0  0  0  0  0  0  0  0  0  0  0
    2.2684   -1.6126   18.2729 S   0  0  0  0  0  0  0  0  0  0  0  0
   -0.0625   -1.6257   18.0847 Cl  0  0  0  0  0  0  0  0  0  0  0  0
    1.1097   -2.7357   22.9584 N   0  0  0  0  0  0  0  0  0  0  0  0
   -0.4110   -2.5423   23.6089 C   0  0  0  0  0  0  0  0  0  0  0  0
   -0.9650   -2.4372   25.0561 C   0  0  0  0  0  0  0  0  0  0  0  0
   -2.2473   -2.1593   25.5712 C   0  0  0  0  0  0  0  0  0  0  0  0
   -2.1909   -1.6851   26.8770 C   0  0  0  0  0  0  0  0  0  0  0  0
   -0.6706   -2.0168   27.5905 S   0  0  0  0  0  0  0  0  0  0  0  0
   -0.1430   -2.5834   26.1063 C   0  0  0  0  0  0  0  0  0  0  0  0
    1.1605   -3.0374   25.7938 C   0  0  0  0  0  0  0  0  0  0  0  0
    1.3128   -3.4790   24.2229 C   0  0  0  0  0  0  0  0  0  0  0  0
    2.8938   -3.1997   24.4302 N   0  0  0  0  0  0  0  0  0  0  0  0
    3.7810   -3.7830   25.4020 C   0  0  0  0  0  0  0  0  0  0  0  0
    5.1225   -3.1967   25.6370 C   0  0  0  0  0  0  0  0  0  0  0  0
    6.1269   -3.9682   26.1365 C   0  0  0  0  0  0  0  0  0  0  0  0
    7.6464   -3.2759   26.6701 S   0  0  0  0  0  0  0  0  0  0  0  0
    8.2027   -4.4393   27.8736 C   0  0  0  0  0  0  0  0  0  0  0  0
    9.0914   -5.3089   27.5128 N   0  0  0  0  0  0  0  0  0  0  0  0
    9.3861   -6.3694   28.3560 C   0  0  0  0  0  0  0  0  0  0  0  0
   10.1387   -7.2788   28.0255 O   0  0  0  0  0  0  0  0  0  0  0  0
    8.6801   -6.3203   29.6179 C   0  0  0  0  0  0  0  0  0  0  0  0
    8.8287   -7.4828   30.8437 S   0  0  0  0  0  0  0  0  0  0  0  0
    7.7000   -6.6470   31.8352 C   0  0  0  0  0  0  0  0  0  0  0  0
    7.2185   -5.5026   31.2303 C   0  0  0  0  0  0  0  0  0  0  0  0
    7.7954   -5.3301   29.9534 C   0  0  0  0  0  0  0  0  0  0  0  0
    7.5592   -4.3375   29.0818 N   0  0  0  0  0  0  0  0  0  0  0  0
    5.8296   -5.3078   26.4019 N   0  0  0  0  0  0  0  0  0  0  0  0
    6.5511   -6.4628   26.5402 C   0  0  0  0  0  0  0  0  0  0  0  0
    5.8416   -7.3520   27.1985 N   0  0  0  0  0  0  0  0  0  0  0  0
    4.5568   -6.8712   27.2553 N   0  0  0  0  0  0  0  0  0  0  0  0
    4.5436   -5.7202   26.6266 C   0  0  0  0  0  0  0  0  0  0  0  0
    3.5157   -4.9227   26.0917 C   0  0  0  0  0  0  0  0  0  0  0  0
    1.1843   -0.8272   19.9491 H   0  0  0  0  0  0  0  0  0  0  0  0
    2.0469   -2.8341   17.7638 H   0  0  0  0  0  0  0  0  0  0  0  0
   -0.6739   -3.5921   23.7440 H   0  0  0  0  0  0  0  0  0  0  0  0
   -1.1195   -2.2290   22.8638 H   0  0  0  0  0  0  0  0  0  0  0  0
   -3.1589   -2.1664   24.9939 H   0  0  0  0  0  0  0  0  0  0  0  0
   -3.0024   -1.3071   27.4832 H   0  0  0  0  0  0  0  0  0  0  0  0
    1.3647   -3.8618   26.4776 H   0  0  0  0  0  0  0  0  0  0  0  0
    1.8351   -2.2091   26.0653 H   0  0  0  0  0  0  0  0  0  0  0  0
    1.3762   -4.4208   23.8015 H   0  0  0  0  0  0  0  0  0  0  0  0
    3.1946   -2.2917   24.0637 H   0  0  0  0  0  0  0  0  0  0  0  0
    5.2429   -2.1376   25.4306 H   0  0  0  0  0  0  0  0  0  0  0  0
    7.4499   -7.0392   32.8113 H   0  0  0  0  0  0  0  0  0  0  0  0
    6.4979   -4.8422   31.6946 H   0  0  0  0  0  0  0  0  0  0  0  0
    6.8723   -3.6047   29.2038 H   0  0  0  0  0  0  0  0  0  0  0  0
    7.5543   -6.5920   26.1615 H   0  0  0  0  0  0  0  0  0  0  0  0
    2.5752   -5.4268   26.0533 H   0  0  0  0  0  0  0  0  0  0  0  0
  1  2  2  0
  2  3  1  0
  3  4  1  0
  3  5  1  0
  2  6  1  0
  6  7  1  0
  7  8  1  0
  8  9  1  0
  9 10  2  0
 10 11  1  0
 11 12  1  0
 12 13  1  0
 13 14  1  0
 14 15  1  0
 15 16  1  0
 16 17  1  0
 17 18  2  0
 18 19  1  0
 19 20  1  0
 20 21  2  0
 21 22  1  0
 22 23  2  0
 22 24  1  0
 24 25  1  0
 25 26  1  0
 26 27  2  0
 27 28  1  0
 28 29  1  0
 18 30  1  0
 30 31  1  0
 31 32  2  0
 32 33  1  0
 33 34  2  0
 34 35  1  0
 14  6  1  0
 35 16  2  0
 12  8  2  0
 29 20  1  0
 34 30  1  0
 28 24  2  0
  3 36  1  0
  4 37  1  0
  7 38  1  0
  7 39  1  0
  9 40  1  0
 10 41  1  0
 13 42  1  0
 13 43  1  0
 14 44  1  0
 15 45  1  0
 17 46  1  0
 26 47  1  0
 27 48  1  0
 29 49  1  0
 31 50  1  0
 35 51  1  0
M  END
>  <Energy>  (513) 
418.59500031076215

>  <compound_id>  (513) 
2456

>  <target_id>  (513) 
1

>  <reference_id>  (513) 
177

>  <inspiration_ids>  (513) 
[177, 154]

>  <energy_score>  (513) 
324.23083671420204

>  <distance_score>  (513) 
5.610536371423608

>  <path>  (513) 
/opt/xchem-fragalysis-2/maxwin/BulkDock/SCRATCH/505736/C2456-P177/C2456-P177.minimised.mol

>  <scratch_subdir>  (513) 
/opt/xchem-fragalysis-2/maxwin/BulkDock/SCRATCH/505736/C2456-P177

>  <fragmenstein_runtime>  (513) 
23.590877532958984

>  <fragmenstein_outcome>  (513) 
too moved

>  <fragmenstein_mode>  (513) 
expansion

>  <fragmenstein_error>  (513) 


$$$$
C2456-P154
     RDKit          3D

 51 56  0  0  0  0  0  0  0  0999 V2000
    0.8785   -4.1446   23.7274 O   0  0  0  0  0  0  0  0  0  0  0  0
    1.3462   -3.1022   23.3263 C   0  0  0  0  0  0  0  0  0  0  0  0
    0.9825   -2.9168   21.4217 C   0  0  0  0  0  0  0  0  0  0  0  0
    1.2272   -1.2244   19.4994 S   0  0  0  0  0  0  0  0  0  0  0  0
    0.9243   -4.6266   21.1006 Cl  0  0  0  0  0  0  0  0  0  0  0  0
    2.0258   -2.0238   24.2931 N   0  0  0  0  0  0  0  0  0  0  0  0
    3.5164   -2.2797   24.4243 C   0  0  0  0  0  0  0  0  0  0  0  0
    4.5496   -2.2796   25.5488 C   0  0  0  0  0  0  0  0  0  0  0  0
    5.7539   -2.9967   25.7647 C   0  0  0  0  0  0  0  0  0  0  0  0
    6.5490   -2.3571   26.7040 C   0  0  0  0  0  0  0  0  0  0  0  0
    5.6952   -1.1423   27.5616 S   0  0  0  0  0  0  0  0  0  0  0  0
    4.3638   -1.4081   26.5858 C   0  0  0  0  0  0  0  0  0  0  0  0
    3.0077   -0.8974   26.7224 C   0  0  0  0  0  0  0  0  0  0  0  0
    2.1514   -1.9573   25.9196 C   0  0  0  0  0  0  0  0  0  0  0  0
    1.8968   -3.2425   26.6468 N   0  0  0  0  0  0  0  0  0  0  0  0
    2.8315   -4.2239   26.9830 C   0  0  0  0  0  0  0  0  0  0  0  0
    3.7949   -4.1235   28.0857 C   0  0  0  0  0  0  0  0  0  0  0  0
    4.8237   -5.0125   28.2072 C   0  0  0  0  0  0  0  0  0  0  0  0
    5.9800   -4.7542   29.4833 S   0  0  0  0  0  0  0  0  0  0  0  0
    7.3940   -5.7181   29.1129 C   0  0  0  0  0  0  0  0  0  0  0  0
    7.5395   -6.8160   29.7833 N   0  0  0  0  0  0  0  0  0  0  0  0
    8.6195   -7.6428   29.5055 C   0  0  0  0  0  0  0  0  0  0  0  0
    8.8269   -8.6785   30.1226 O   0  0  0  0  0  0  0  0  0  0  0  0
    9.4500   -7.1766   28.4238 C   0  0  0  0  0  0  0  0  0  0  0  0
   10.7825   -8.0250   27.8117 S   0  0  0  0  0  0  0  0  0  0  0  0
   11.0880   -6.7878   26.6592 C   0  0  0  0  0  0  0  0  0  0  0  0
   10.1761   -5.7546   26.7432 C   0  0  0  0  0  0  0  0  0  0  0  0
    9.2380   -5.9978   27.7656 C   0  0  0  0  0  0  0  0  0  0  0  0
    8.2055   -5.2219   28.1283 N   0  0  0  0  0  0  0  0  0  0  0  0
    4.8563   -6.1002   27.3092 N   0  0  0  0  0  0  0  0  0  0  0  0
    5.6980   -7.1484   27.0626 C   0  0  0  0  0  0  0  0  0  0  0  0
    5.2311   -7.9156   26.1088 N   0  0  0  0  0  0  0  0  0  0  0  0
    4.0120   -7.4456   25.7555 N   0  0  0  0  0  0  0  0  0  0  0  0
    3.8402   -6.3228   26.4012 C   0  0  0  0  0  0  0  0  0  0  0  0
    2.8503   -5.3518   26.2749 C   0  0  0  0  0  0  0  0  0  0  0  0
    0.0443   -2.4545   21.8120 H   0  0  0  0  0  0  0  0  0  0  0  0
    0.4245   -1.8858   18.6501 H   0  0  0  0  0  0  0  0  0  0  0  0
    3.8089   -1.2433   24.2278 H   0  0  0  0  0  0  0  0  0  0  0  0
    3.8541   -2.5679   23.4703 H   0  0  0  0  0  0  0  0  0  0  0  0
    6.1036   -3.8255   25.1582 H   0  0  0  0  0  0  0  0  0  0  0  0
    7.5866   -2.5372   26.9351 H   0  0  0  0  0  0  0  0  0  0  0  0
    2.9297    0.1102   26.3061 H   0  0  0  0  0  0  0  0  0  0  0  0
    2.6917   -0.8741   27.7714 H   0  0  0  0  0  0  0  0  0  0  0  0
    1.1785   -1.5301   26.1412 H   0  0  0  0  0  0  0  0  0  0  0  0
    1.1290   -3.6700   26.1104 H   0  0  0  0  0  0  0  0  0  0  0  0
    3.6702   -3.2860   28.7650 H   0  0  0  0  0  0  0  0  0  0  0  0
   11.9206   -6.8844   25.9757 H   0  0  0  0  0  0  0  0  0  0  0  0
   10.1990   -4.8880   26.0948 H   0  0  0  0  0  0  0  0  0  0  0  0
    7.9210   -4.3995   27.6184 H   0  0  0  0  0  0  0  0  0  0  0  0
    6.6185   -7.3679   27.5590 H   0  0  0  0  0  0  0  0  0  0  0  0
    2.1191   -5.4770   25.5120 H   0  0  0  0  0  0  0  0  0  0  0  0
  1  2  2  0
  2  3  1  0
  3  4  1  0
  3  5  1  0
  2  6  1  0
  6  7  1  0
  7  8  1  0
  8  9  1  0
  9 10  2  0
 10 11  1  0
 11 12  1  0
 12 13  1  0
 13 14  1  0
 14 15  1  0
 15 16  1  0
 16 17  1  0
 17 18  2  0
 18 19  1  0
 19 20  1  0
 20 21  2  0
 21 22  1  0
 22 23  2  0
 22 24  1  0
 24 25  1  0
 25 26  1  0
 26 27  2  0
 27 28  1  0
 28 29  1  0
 18 30  1  0
 30 31  1  0
 31 32  2  0
 32 33  1  0
 33 34  2  0
 34 35  1  0
 14  6  1  0
 35 16  2  0
 12  8  2  0
 29 20  1  0
 34 30  1  0
 28 24  2  0
  3 36  1  0
  4 37  1  0
  7 38  1  0
  7 39  1  0
  9 40  1  0
 10 41  1  0
 13 42  1  0
 13 43  1  0
 14 44  1  0
 15 45  1  0
 17 46  1  0
 26 47  1  0
 27 48  1  0
 29 49  1  0
 31 50  1  0
 35 51  1  0
M  END
>  <Energy>  (514) 
388.97444186833013

>  <compound_id>  (514) 
2456

>  <target_id>  (514) 
1

>  <reference_id>  (514) 
154

>  <inspiration_ids>  (514) 
[177, 154]

>  <energy_score>  (514) 
294.61027827177463

>  <distance_score>  (514) 
5.081272273881048

>  <path>  (514) 
/opt/xchem-fragalysis-2/maxwin/BulkDock/SCRATCH/505736/C2456-P154/C2456-P154.minimised.mol

>  <scratch_subdir>  (514) 
/opt/xchem-fragalysis-2/maxwin/BulkDock/SCRATCH/505736/C2456-P154

>  <fragmenstein_runtime>  (514) 
13.564295053482056

>  <fragmenstein_outcome>  (514) 
too moved

>  <fragmenstein_mode>  (514) 
expansion

>  <fragmenstein_error>  (514) 


$$$$
C2516-P177
     RDKit          3D

 63 67  0  0  0  0  0  0  0  0999 V2000
    8.2942   -7.4410   26.0234 O   0  0  0  0  0  0  0  0  0  0  0  0
    7.6974   -7.5286   27.3333 S   0  0  0  0  0  0  0  0  0  0  0  0
    7.2845   -8.8012   27.8800 O   0  0  0  0  0  0  0  0  0  0  0  0
    8.7624   -6.8391   28.4456 N   0  0  0  0  0  0  0  0  0  0  0  0
    8.3268   -6.8830   29.8650 C   0  0  0  0  0  0  0  0  0  0  0  0
    9.2221   -5.9526   30.7112 C   0  0  0  0  0  0  0  0  0  0  0  0
   10.6544   -5.9228   30.3444 N   0  0  0  0  0  0  0  0  0  0  0  0
   11.0023   -7.1260   29.5704 C   0  0  0  0  0  0  0  0  0  0  0  0
   10.1813   -7.2790   28.2715 C   0  0  0  0  0  0  0  0  0  0  0  0
    6.4119   -6.4557   27.4382 N   0  0  0  0  0  0  0  0  0  0  0  0
    5.1337   -6.9417   26.8133 C   0  0  0  0  0  0  0  0  0  0  0  0
    4.6335   -6.1252   25.6037 C   0  0  0  0  0  0  0  0  0  0  0  0
    4.6075   -4.6855   25.9602 C   0  0  0  0  0  0  0  0  0  0  0  0
    5.5840   -4.2210   26.8103 C   0  0  0  0  0  0  0  0  0  0  0  0
    5.2740   -2.9775   27.2274 N   0  0  0  0  0  0  0  0  0  0  0  0
    4.1580   -2.6210   26.6053 N   0  0  0  0  0  0  0  0  0  0  0  0
    3.8157   -3.5783   25.6721 N   0  0  0  0  0  0  0  0  0  0  0  0
    3.2153   -3.0123   24.4354 C   0  0  0  0  0  0  0  0  0  0  0  0
    1.8227   -3.3698   23.7291 C   0  0  0  0  0  0  0  0  0  0  0  0
    1.4143   -3.7278   22.0892 N   0  0  0  0  0  0  0  0  0  0  0  0
    0.5723   -2.8192   21.8491 C   0  0  0  0  0  0  0  0  0  0  0  0
    1.1097   -1.7507   19.9002 C   0  0  0  0  0  0  0  0  0  0  0  0
   -0.0054   -1.5266   18.0614 S   0  0  0  0  0  0  0  0  0  0  0  0
    2.3462   -1.7175   18.3428 Cl  0  0  0  0  0  0  0  0  0  0  0  0
   -0.8522   -2.7971   23.0717 N   0  0  0  0  0  0  0  0  0  0  0  0
   -1.3194   -3.9148   24.4531 C   0  0  0  0  0  0  0  0  0  0  0  0
   -1.1663   -3.9771   25.9751 C   0  0  0  0  0  0  0  0  0  0  0  0
   -0.0044   -3.3406   26.4623 C   0  0  0  0  0  0  0  0  0  0  0  0
    0.9220   -3.6631   27.7983 S   0  0  0  0  0  0  0  0  0  0  0  0
    1.2893   -1.9963   27.8725 C   0  0  0  0  0  0  0  0  0  0  0  0
    0.6036   -1.3001   26.8826 C   0  0  0  0  0  0  0  0  0  0  0  0
    0.0370   -2.1543   25.8462 C   0  0  0  0  0  0  0  0  0  0  0  0
   -1.0001   -2.0788   24.3486 C   0  0  0  0  0  0  0  0  0  0  0  0
    6.7688   -5.0160   27.2249 C   0  0  0  0  0  0  0  0  0  0  0  0
    8.3982   -7.9104   30.2403 H   0  0  0  0  0  0  0  0  0  0  0  0
    7.2881   -6.5548   29.9687 H   0  0  0  0  0  0  0  0  0  0  0  0
    8.8400   -4.9269   30.6391 H   0  0  0  0  0  0  0  0  0  0  0  0
    9.1326   -6.2394   31.7652 H   0  0  0  0  0  0  0  0  0  0  0  0
   10.7830   -5.1224   29.7201 H   0  0  0  0  0  0  0  0  0  0  0  0
   12.0688   -7.0980   29.3205 H   0  0  0  0  0  0  0  0  0  0  0  0
   10.8633   -8.0105   30.2053 H   0  0  0  0  0  0  0  0  0  0  0  0
   10.6248   -6.6506   27.4902 H   0  0  0  0  0  0  0  0  0  0  0  0
   10.2306   -8.3247   27.9470 H   0  0  0  0  0  0  0  0  0  0  0  0
    5.2062   -7.9963   26.5253 H   0  0  0  0  0  0  0  0  0  0  0  0
    4.3797   -6.8864   27.6061 H   0  0  0  0  0  0  0  0  0  0  0  0
    5.3280   -6.3091   24.7801 H   0  0  0  0  0  0  0  0  0  0  0  0
    3.6419   -6.4940   25.3624 H   0  0  0  0  0  0  0  0  0  0  0  0
    2.9563   -2.0252   24.8452 H   0  0  0  0  0  0  0  0  0  0  0  0
    4.0435   -2.7431   23.7974 H   0  0  0  0  0  0  0  0  0  0  0  0
    1.3075   -4.0457   24.3441 H   0  0  0  0  0  0  0  0  0  0  0  0
    1.3042   -2.4407   23.8836 H   0  0  0  0  0  0  0  0  0  0  0  0
    1.2564   -0.7541   20.0056 H   0  0  0  0  0  0  0  0  0  0  0  0
    0.8624   -0.6673   17.5127 H   0  0  0  0  0  0  0  0  0  0  0  0
   -2.4303   -3.7967   24.4783 H   0  0  0  0  0  0  0  0  0  0  0  0
   -1.3121   -4.9195   24.0687 H   0  0  0  0  0  0  0  0  0  0  0  0
   -1.3846   -4.9601   26.4053 H   0  0  0  0  0  0  0  0  0  0  0  0
   -1.8836   -3.2375   26.3090 H   0  0  0  0  0  0  0  0  0  0  0  0
    1.8973   -1.5940   28.6720 H   0  0  0  0  0  0  0  0  0  0  0  0
    0.5927   -0.2208   26.9487 H   0  0  0  0  0  0  0  0  0  0  0  0
   -2.0039   -2.0795   24.8475 H   0  0  0  0  0  0  0  0  0  0  0  0
   -1.3618   -1.2117   23.9141 H   0  0  0  0  0  0  0  0  0  0  0  0
    7.1639   -4.6095   28.1617 H   0  0  0  0  0  0  0  0  0  0  0  0
    7.5375   -4.9187   26.4521 H   0  0  0  0  0  0  0  0  0  0  0  0
  1  2  2  0
  2  3  2  0
  2  4  1  0
  4  5  1  0
  5  6  1  0
  6  7  1  0
  7  8  1  0
  8  9  1  0
  2 10  1  0
 10 11  1  0
 11 12  1  0
 12 13  1  0
 13 14  2  0
 14 15  1  0
 15 16  2  0
 16 17  1  0
 17 18  1  0
 18 19  1  0
 19 20  1  0
 20 21  2  3
 21 22  1  0
 22 23  1  0
 22 24  1  0
 21 25  1  0
 25 26  1  0
 26 27  1  0
 27 28  1  0
 28 29  1  0
 29 30  1  0
 30 31  2  0
 31 32  1  0
 32 33  1  0
 14 34  1  0
  9  4  1  0
 34 10  1  0
 17 13  1  0
 33 25  1  0
 32 28  2  0
  5 35  1  0
  5 36  1  0
  6 37  1  0
  6 38  1  0
  7 39  1  0
  8 40  1  0
  8 41  1  0
  9 42  1  0
  9 43  1  0
 11 44  1  0
 11 45  1  0
 12 46  1  0
 12 47  1  0
 18 48  1  0
 18 49  1  0
 19 50  1  0
 19 51  1  0
 22 52  1  0
 23 53  1  0
 26 54  1  0
 26 55  1  0
 27 56  1  0
 27 57  1  0
 30 58  1  0
 31 59  1  0
 33 60  1  0
 33 61  1  0
 34 62  1  0
 34 63  1  0
M  END
>  <Energy>  (515) 
721.08221189483004

>  <compound_id>  (515) 
2516

>  <target_id>  (515) 
1

>  <reference_id>  (515) 
177

>  <inspiration_ids>  (515) 
[177, 155]

>  <energy_score>  (515) 
604.2410601500382

>  <distance_score>  (515) 
5.54654487336323

>  <path>  (515) 
/opt/xchem-fragalysis-2/maxwin/BulkDock/SCRATCH/505736/C2516-P177/C2516-P177.minimised.mol

>  <scratch_subdir>  (515) 
/opt/xchem-fragalysis-2/maxwin/BulkDock/SCRATCH/505736/C2516-P177

>  <fragmenstein_runtime>  (515) 
26.081214666366577

>  <fragmenstein_outcome>  (515) 
too moved

>  <fragmenstein_mode>  (515) 
expansion

>  <fragmenstein_error>  (515) 


$$$$
C2516-P155
     RDKit          3D

 63 67  0  0  0  0  0  0  0  0999 V2000
   10.4386   -8.7320   24.0776 O   0  0  0  0  0  0  0  0  0  0  0  0
   10.5868   -8.8567   25.5125 S   0  0  0  0  0  0  0  0  0  0  0  0
   11.6164   -8.1294   26.2134 O   0  0  0  0  0  0  0  0  0  0  0  0
   10.7807  -10.4941   25.8475 N   0  0  0  0  0  0  0  0  0  0  0  0
   11.1104  -10.8505   27.2630 C   0  0  0  0  0  0  0  0  0  0  0  0
   12.5505  -11.3642   27.4158 C   0  0  0  0  0  0  0  0  0  0  0  0
   12.8287  -12.5760   26.6339 N   0  0  0  0  0  0  0  0  0  0  0  0
   12.1027  -12.5769   25.3563 C   0  0  0  0  0  0  0  0  0  0  0  0
   11.6519  -11.1991   24.8507 C   0  0  0  0  0  0  0  0  0  0  0  0
    9.1063   -8.5425   26.1746 N   0  0  0  0  0  0  0  0  0  0  0  0
    7.8893   -9.2054   25.6166 C   0  0  0  0  0  0  0  0  0  0  0  0
    6.7288   -8.1839   25.5563 C   0  0  0  0  0  0  0  0  0  0  0  0
    6.6445   -7.5382   26.8812 C   0  0  0  0  0  0  0  0  0  0  0  0
    7.6606   -7.5004   27.8037 C   0  0  0  0  0  0  0  0  0  0  0  0
    7.2138   -6.9018   28.9412 N   0  0  0  0  0  0  0  0  0  0  0  0
    5.9503   -6.5381   28.7332 N   0  0  0  0  0  0  0  0  0  0  0  0
    5.6339   -6.8568   27.4647 N   0  0  0  0  0  0  0  0  0  0  0  0
    4.3419   -6.5069   26.9315 C   0  0  0  0  0  0  0  0  0  0  0  0
    4.4477   -5.3876   25.9208 C   0  0  0  0  0  0  0  0  0  0  0  0
    3.1171   -4.8722   25.5800 N   0  0  0  0  0  0  0  0  0  0  0  0
    3.0627   -3.6857   25.1367 C   0  0  0  0  0  0  0  0  0  0  0  0
    2.6063   -3.4779   23.2776 C   0  0  0  0  0  0  0  0  0  0  0  0
    0.7057   -4.7714   23.1554 S   0  0  0  0  0  0  0  0  0  0  0  0
    0.9782   -3.1704   22.1978 Cl  0  0  0  0  0  0  0  0  0  0  0  0
    3.1968   -2.3872   25.8388 N   0  0  0  0  0  0  0  0  0  0  0  0
    3.3296   -2.0547   27.3504 C   0  0  0  0  0  0  0  0  0  0  0  0
    4.0135   -3.0034   28.3359 C   0  0  0  0  0  0  0  0  0  0  0  0
    5.4423   -2.8660   28.0383 C   0  0  0  0  0  0  0  0  0  0  0  0
    6.7159   -3.2439   29.0687 S   0  0  0  0  0  0  0  0  0  0  0  0
    7.8514   -2.7991   27.8665 C   0  0  0  0  0  0  0  0  0  0  0  0
    7.2399   -2.3127   26.7282 C   0  0  0  0  0  0  0  0  0  0  0  0
    5.8217   -2.3500   26.8268 C   0  0  0  0  0  0  0  0  0  0  0  0
    4.7668   -1.8945   25.8460 C   0  0  0  0  0  0  0  0  0  0  0  0
    9.0052   -8.0984   27.5929 C   0  0  0  0  0  0  0  0  0  0  0  0
   10.3898  -11.6089   27.5856 H   0  0  0  0  0  0  0  0  0  0  0  0
   10.9849   -9.9975   27.9331 H   0  0  0  0  0  0  0  0  0  0  0  0
   13.2495  -10.5747   27.1124 H   0  0  0  0  0  0  0  0  0  0  0  0
   12.7508  -11.5805   28.4706 H   0  0  0  0  0  0  0  0  0  0  0  0
   13.8334  -12.6412   26.4689 H   0  0  0  0  0  0  0  0  0  0  0  0
   12.7329  -13.0526   24.5976 H   0  0  0  0  0  0  0  0  0  0  0  0
   11.2174  -13.2091   25.4799 H   0  0  0  0  0  0  0  0  0  0  0  0
   12.5371  -10.5903   24.6285 H   0  0  0  0  0  0  0  0  0  0  0  0
   11.0831  -11.3339   23.9238 H   0  0  0  0  0  0  0  0  0  0  0  0
    8.0688   -9.6145   24.6211 H   0  0  0  0  0  0  0  0  0  0  0  0
    7.6247  -10.0516   26.2643 H   0  0  0  0  0  0  0  0  0  0  0  0
    6.9370   -7.4258   24.7928 H   0  0  0  0  0  0  0  0  0  0  0  0
    5.7930   -8.6894   25.3052 H   0  0  0  0  0  0  0  0  0  0  0  0
    3.9198   -7.4072   26.4728 H   0  0  0  0  0  0  0  0  0  0  0  0
    3.7054   -6.2292   27.7766 H   0  0  0  0  0  0  0  0  0  0  0  0
    5.1333   -4.6232   26.2545 H   0  0  0  0  0  0  0  0  0  0  0  0
    4.9142   -5.8075   25.0246 H   0  0  0  0  0  0  0  0  0  0  0  0
    2.8877   -2.4420   23.1508 H   0  0  0  0  0  0  0  0  0  0  0  0
    0.8517   -4.9772   21.8369 H   0  0  0  0  0  0  0  0  0  0  0  0
    3.5594   -0.9891   27.5334 H   0  0  0  0  0  0  0  0  0  0  0  0
    2.2735   -2.0918   27.6608 H   0  0  0  0  0  0  0  0  0  0  0  0
    3.6571   -4.0268   28.2225 H   0  0  0  0  0  0  0  0  0  0  0  0
    3.7943   -2.6851   29.3615 H   0  0  0  0  0  0  0  0  0  0  0  0
    8.9108   -2.9031   28.0563 H   0  0  0  0  0  0  0  0  0  0  0  0
    7.8083   -1.9630   25.8778 H   0  0  0  0  0  0  0  0  0  0  0  0
    4.7491   -0.7937   25.8031 H   0  0  0  0  0  0  0  0  0  0  0  0
    5.0996   -2.1890   24.8484 H   0  0  0  0  0  0  0  0  0  0  0  0
    9.1171   -8.9531   28.2649 H   0  0  0  0  0  0  0  0  0  0  0  0
    9.7675   -7.3474   27.8190 H   0  0  0  0  0  0  0  0  0  0  0  0
  1  2  2  0
  2  3  2  0
  2  4  1  0
  4  5  1  0
  5  6  1  0
  6  7  1  0
  7  8  1  0
  8  9  1  0
  2 10  1  0
 10 11  1  0
 11 12  1  0
 12 13  1  0
 13 14  2  0
 14 15  1  0
 15 16  2  0
 16 17  1  0
 17 18  1  0
 18 19  1  0
 19 20  1  0
 20 21  2  3
 21 22  1  0
 22 23  1  0
 22 24  1  0
 21 25  1  0
 25 26  1  0
 26 27  1  0
 27 28  1  0
 28 29  1  0
 29 30  1  0
 30 31  2  0
 31 32  1  0
 32 33  1  0
 14 34  1  0
  9  4  1  0
 34 10  1  0
 17 13  1  0
 33 25  1  0
 32 28  2  0
  5 35  1  0
  5 36  1  0
  6 37  1  0
  6 38  1  0
  7 39  1  0
  8 40  1  0
  8 41  1  0
  9 42  1  0
  9 43  1  0
 11 44  1  0
 11 45  1  0
 12 46  1  0
 12 47  1  0
 18 48  1  0
 18 49  1  0
 19 50  1  0
 19 51  1  0
 22 52  1  0
 23 53  1  0
 26 54  1  0
 26 55  1  0
 27 56  1  0
 27 57  1  0
 30 58  1  0
 31 59  1  0
 33 60  1  0
 33 61  1  0
 34 62  1  0
 34 63  1  0
M  END
>  <Energy>  (516) 
256.25099207574226

>  <compound_id>  (516) 
2516

>  <target_id>  (516) 
1

>  <reference_id>  (516) 
155

>  <inspiration_ids>  (516) 
[177, 155]

>  <energy_score>  (516) 
139.40984033096015

>  <distance_score>  (516) 
5.34233005255844

>  <path>  (516) 
/opt/xchem-fragalysis-2/maxwin/BulkDock/SCRATCH/505736/C2516-P155/C2516-P155.minimised.mol

>  <scratch_subdir>  (516) 
/opt/xchem-fragalysis-2/maxwin/BulkDock/SCRATCH/505736/C2516-P155

>  <fragmenstein_runtime>  (516) 
39.664119482040405

>  <fragmenstein_outcome>  (516) 
too moved

>  <fragmenstein_mode>  (516) 
expansion

>  <fragmenstein_error>  (516) 


$$$$
C2654-P177
     RDKit          3D

 53 57  0  0  0  0  0  0  0  0999 V2000
   -1.1172   -1.8883   22.7553 O   0  0  0  0  0  0  0  0  0  0  0  0
   -0.3178   -2.6976   23.0774 C   0  0  0  0  0  0  0  0  0  0  0  0
   -0.1228   -3.3723   24.3641 N   0  0  0  0  0  0  0  0  0  0  0  0
   -0.8592   -3.1567   25.8157 C   0  0  0  0  0  0  0  0  0  0  0  0
   -0.3598   -4.1344   27.1108 C   0  0  0  0  0  0  0  0  0  0  0  0
    0.8164   -4.7266   27.1874 N   0  0  0  0  0  0  0  0  0  0  0  0
    1.0302   -5.1653   28.4782 N   0  0  0  0  0  0  0  0  0  0  0  0
    0.0198   -4.7582   29.2043 C   0  0  0  0  0  0  0  0  0  0  0  0
   -0.1490   -4.9282   30.6103 C   0  0  0  0  0  0  0  0  0  0  0  0
   -0.2400   -3.9348   31.5629 C   0  0  0  0  0  0  0  0  0  0  0  0
   -0.4634   -4.4610   32.8691 C   0  0  0  0  0  0  0  0  0  0  0  0
   -0.5345   -5.8359   32.8710 C   0  0  0  0  0  0  0  0  0  0  0  0
   -0.3342   -6.4822   31.3059 S   0  0  0  0  0  0  0  0  0  0  0  0
   -0.8709   -4.1260   28.3870 N   0  0  0  0  0  0  0  0  0  0  0  0
   -0.6573   -1.7739   26.7000 C   0  0  0  0  0  0  0  0  0  0  0  0
   -2.1700   -1.6116   26.7408 C   0  0  0  0  0  0  0  0  0  0  0  0
   -2.2322   -2.5880   25.5543 C   0  0  0  0  0  0  0  0  0  0  0  0
    1.0582   -3.1149   21.7217 C   0  0  0  0  0  0  0  0  0  0  0  0
    0.8629   -4.5345   21.4457 O   0  0  0  0  0  0  0  0  0  0  0  0
    1.1905   -1.8803   19.8236 C   0  0  0  0  0  0  0  0  0  0  0  0
    1.9741   -0.9331   18.3004 S   0  0  0  0  0  0  0  0  0  0  0  0
   -0.1444   -1.5363   18.1015 Cl  0  0  0  0  0  0  0  0  0  0  0  0
    2.2525   -3.1823   23.3280 N   0  0  0  0  0  0  0  0  0  0  0  0
    1.8994   -2.6949   24.8774 C   0  0  0  0  0  0  0  0  0  0  0  0
    2.6491   -2.1554   26.2024 C   0  0  0  0  0  0  0  0  0  0  0  0
    3.7913   -3.0452   26.3731 C   0  0  0  0  0  0  0  0  0  0  0  0
    4.4296   -3.6632   27.7924 S   0  0  0  0  0  0  0  0  0  0  0  0
    5.6398   -4.4825   26.9001 C   0  0  0  0  0  0  0  0  0  0  0  0
    5.5271   -4.2508   25.5408 C   0  0  0  0  0  0  0  0  0  0  0  0
    4.3941   -3.4380   25.2151 C   0  0  0  0  0  0  0  0  0  0  0  0
    3.8489   -2.7386   23.8714 C   0  0  0  0  0  0  0  0  0  0  0  0
    0.6064   -4.0757   24.2621 H   0  0  0  0  0  0  0  0  0  0  0  0
   -0.1431   -2.8780   31.3425 H   0  0  0  0  0  0  0  0  0  0  0  0
   -0.5740   -3.8612   33.7657 H   0  0  0  0  0  0  0  0  0  0  0  0
   -0.7022   -6.4887   33.7175 H   0  0  0  0  0  0  0  0  0  0  0  0
   -1.7489   -3.7003   28.6394 H   0  0  0  0  0  0  0  0  0  0  0  0
   -0.0879   -0.9220   26.3974 H   0  0  0  0  0  0  0  0  0  0  0  0
   -0.2599   -1.8629   27.7235 H   0  0  0  0  0  0  0  0  0  0  0  0
   -2.5423   -0.6002   26.5962 H   0  0  0  0  0  0  0  0  0  0  0  0
   -2.6112   -1.9275   27.6896 H   0  0  0  0  0  0  0  0  0  0  0  0
   -2.9751   -3.3335   25.4011 H   0  0  0  0  0  0  0  0  0  0  0  0
   -2.2964   -2.0850   24.6076 H   0  0  0  0  0  0  0  0  0  0  0  0
    1.2379   -4.9657   22.2326 H   0  0  0  0  0  0  0  0  0  0  0  0
    0.9192   -2.7920   18.9734 H   0  0  0  0  0  0  0  0  0  0  0  0
    1.1198    0.1009   18.3575 H   0  0  0  0  0  0  0  0  0  0  0  0
    1.7144   -3.6607   25.3351 H   0  0  0  0  0  0  0  0  0  0  0  0
    1.1753   -1.9456   24.7713 H   0  0  0  0  0  0  0  0  0  0  0  0
    2.9780   -1.1162   26.0972 H   0  0  0  0  0  0  0  0  0  0  0  0
    1.9773   -2.2009   27.0627 H   0  0  0  0  0  0  0  0  0  0  0  0
    6.3921   -5.0716   27.4051 H   0  0  0  0  0  0  0  0  0  0  0  0
    6.2552   -4.6532   24.8466 H   0  0  0  0  0  0  0  0  0  0  0  0
    3.8104   -1.7563   24.3103 H   0  0  0  0  0  0  0  0  0  0  0  0
    4.7269   -2.5166   23.2515 H   0  0  0  0  0  0  0  0  0  0  0  0
  1  2  2  0
  2  3  1  0
  3  4  1  0
  4  5  1  0
  5  6  2  0
  6  7  1  0
  7  8  2  0
  8  9  1  0
  9 10  2  0
 10 11  1  0
 11 12  2  0
 12 13  1  0
  8 14  1  0
  4 15  1  0
 15 16  1  0
 16 17  1  0
  2 18  1  0
 18 19  1  0
 18 20  1  0
 20 21  1  0
 20 22  1  0
 18 23  1  0
 23 24  1  0
 24 25  1  0
 25 26  1  0
 26 27  1  0
 27 28  1  0
 28 29  2  0
 29 30  1  0
 30 31  1  0
 17  4  1  0
 31 23  1  0
 14  5  1  0
 30 26  2  0
 13  9  1  0
  3 32  1  0
 10 33  1  0
 11 34  1  0
 12 35  1  0
 14 36  1  0
 15 37  1  0
 15 38  1  0
 16 39  1  0
 16 40  1  0
 17 41  1  0
 17 42  1  0
 19 43  1  0
 20 44  1  0
 21 45  1  0
 24 46  1  0
 24 47  1  0
 25 48  1  0
 25 49  1  0
 28 50  1  0
 29 51  1  0
 31 52  1  0
 31 53  1  0
M  END
>  <Energy>  (517) 
822.45524608531105

>  <compound_id>  (517) 
2654

>  <target_id>  (517) 
1

>  <reference_id>  (517) 
177

>  <inspiration_ids>  (517) 
[177, 156]

>  <energy_score>  (517) 
606.369183990899

>  <distance_score>  (517) 
5.888349520755636

>  <path>  (517) 
/opt/xchem-fragalysis-2/maxwin/BulkDock/SCRATCH/505736/C2654-P177/C2654-P177.minimised.mol

>  <scratch_subdir>  (517) 
/opt/xchem-fragalysis-2/maxwin/BulkDock/SCRATCH/505736/C2654-P177

>  <fragmenstein_runtime>  (517) 
16.887144804000854

>  <fragmenstein_outcome>  (517) 
too moved

>  <fragmenstein_mode>  (517) 
expansion

>  <fragmenstein_error>  (517) 


$$$$
C2654-P156
     RDKit          3D

 53 57  0  0  0  0  0  0  0  0999 V2000
    1.6865   -4.4625   27.8597 O   0  0  0  0  0  0  0  0  0  0  0  0
    2.5429   -3.7954   27.3451 C   0  0  0  0  0  0  0  0  0  0  0  0
    3.1591   -2.5740   27.7756 N   0  0  0  0  0  0  0  0  0  0  0  0
    2.8731   -1.6989   28.9322 C   0  0  0  0  0  0  0  0  0  0  0  0
    2.5963   -2.5378   30.2442 C   0  0  0  0  0  0  0  0  0  0  0  0
    3.1391   -2.3823   31.4323 N   0  0  0  0  0  0  0  0  0  0  0  0
    2.5849   -3.3378   32.2754 N   0  0  0  0  0  0  0  0  0  0  0  0
    1.7240   -4.0516   31.5774 C   0  0  0  0  0  0  0  0  0  0  0  0
    0.9406   -5.1739   32.0041 C   0  0  0  0  0  0  0  0  0  0  0  0
    0.1754   -6.0112   31.2078 C   0  0  0  0  0  0  0  0  0  0  0  0
   -0.5097   -7.0116   31.9571 C   0  0  0  0  0  0  0  0  0  0  0  0
   -0.2462   -6.9118   33.3031 C   0  0  0  0  0  0  0  0  0  0  0  0
    0.8457   -5.6425   33.6487 S   0  0  0  0  0  0  0  0  0  0  0  0
    1.6811   -3.5485   30.3125 N   0  0  0  0  0  0  0  0  0  0  0  0
    3.8070   -0.4759   29.1074 C   0  0  0  0  0  0  0  0  0  0  0  0
    2.5597    0.3704   29.4305 C   0  0  0  0  0  0  0  0  0  0  0  0
    1.7390   -0.6665   28.6410 C   0  0  0  0  0  0  0  0  0  0  0  0
    3.1203   -4.4293   25.8513 C   0  0  0  0  0  0  0  0  0  0  0  0
    2.6541   -5.7735   25.8716 O   0  0  0  0  0  0  0  0  0  0  0  0
    2.5153   -3.7325   24.2661 C   0  0  0  0  0  0  0  0  0  0  0  0
    1.3632   -3.4910   22.5004 S   0  0  0  0  0  0  0  0  0  0  0  0
    0.5539   -4.8380   23.8496 Cl  0  0  0  0  0  0  0  0  0  0  0  0
    4.5579   -4.6294   26.0763 N   0  0  0  0  0  0  0  0  0  0  0  0
    4.9356   -5.5126   27.2279 C   0  0  0  0  0  0  0  0  0  0  0  0
    6.2973   -5.2796   27.9164 C   0  0  0  0  0  0  0  0  0  0  0  0
    6.5214   -3.8173   27.9889 C   0  0  0  0  0  0  0  0  0  0  0  0
    7.2551   -3.0104   29.2749 S   0  0  0  0  0  0  0  0  0  0  0  0
    7.0988   -1.5079   28.4653 C   0  0  0  0  0  0  0  0  0  0  0  0
    6.4680   -1.6360   27.2452 C   0  0  0  0  0  0  0  0  0  0  0  0
    6.1252   -2.9873   26.9679 C   0  0  0  0  0  0  0  0  0  0  0  0
    5.4692   -3.5486   25.7563 C   0  0  0  0  0  0  0  0  0  0  0  0
    3.7839   -2.2496   27.0525 H   0  0  0  0  0  0  0  0  0  0  0  0
    0.0960   -5.9149   30.1311 H   0  0  0  0  0  0  0  0  0  0  0  0
   -1.1680   -7.7609   31.5372 H   0  0  0  0  0  0  0  0  0  0  0  0
   -0.6373   -7.5259   34.1043 H   0  0  0  0  0  0  0  0  0  0  0  0
    1.1540   -3.9128   29.5290 H   0  0  0  0  0  0  0  0  0  0  0  0
    4.5511   -0.5279   29.9064 H   0  0  0  0  0  0  0  0  0  0  0  0
    4.3008   -0.1428   28.1879 H   0  0  0  0  0  0  0  0  0  0  0  0
    2.5570    1.3855   29.0253 H   0  0  0  0  0  0  0  0  0  0  0  0
    2.3142    0.4143   30.4976 H   0  0  0  0  0  0  0  0  0  0  0  0
    1.6240   -0.4016   27.5838 H   0  0  0  0  0  0  0  0  0  0  0  0
    0.7484   -0.8878   29.0489 H   0  0  0  0  0  0  0  0  0  0  0  0
    3.4066   -6.2899   25.5307 H   0  0  0  0  0  0  0  0  0  0  0  0
    2.9774   -2.8120   23.8637 H   0  0  0  0  0  0  0  0  0  0  0  0
    1.2819   -4.7510   22.0613 H   0  0  0  0  0  0  0  0  0  0  0  0
    4.9210   -6.5569   26.8916 H   0  0  0  0  0  0  0  0  0  0  0  0
    4.1851   -5.4476   28.0241 H   0  0  0  0  0  0  0  0  0  0  0  0
    7.0960   -5.7383   27.3208 H   0  0  0  0  0  0  0  0  0  0  0  0
    6.3016   -5.7516   28.9050 H   0  0  0  0  0  0  0  0  0  0  0  0
    7.4701   -0.6053   28.9311 H   0  0  0  0  0  0  0  0  0  0  0  0
    6.2701   -0.7950   26.5931 H   0  0  0  0  0  0  0  0  0  0  0  0
    6.2369   -4.0174   25.1401 H   0  0  0  0  0  0  0  0  0  0  0  0
    4.9950   -2.7518   25.1749 H   0  0  0  0  0  0  0  0  0  0  0  0
  1  2  2  0
  2  3  1  0
  3  4  1  0
  4  5  1  0
  5  6  2  0
  6  7  1  0
  7  8  2  0
  8  9  1  0
  9 10  2  0
 10 11  1  0
 11 12  2  0
 12 13  1  0
  8 14  1  0
  4 15  1  0
 15 16  1  0
 16 17  1  0
  2 18  1  0
 18 19  1  0
 18 20  1  0
 20 21  1  0
 20 22  1  0
 18 23  1  0
 23 24  1  0
 24 25  1  0
 25 26  1  0
 26 27  1  0
 27 28  1  0
 28 29  2  0
 29 30  1  0
 30 31  1  0
 17  4  1  0
 31 23  1  0
 14  5  1  0
 30 26  2  0
 13  9  1  0
  3 32  1  0
 10 33  1  0
 11 34  1  0
 12 35  1  0
 14 36  1  0
 15 37  1  0
 15 38  1  0
 16 39  1  0
 16 40  1  0
 17 41  1  0
 17 42  1  0
 19 43  1  0
 20 44  1  0
 21 45  1  0
 24 46  1  0
 24 47  1  0
 25 48  1  0
 25 49  1  0
 28 50  1  0
 29 51  1  0
 31 52  1  0
 31 53  1  0
M  END
>  <Energy>  (518) 
312.72974284500242

>  <compound_id>  (518) 
2654

>  <target_id>  (518) 
1

>  <reference_id>  (518) 
156

>  <inspiration_ids>  (518) 
[177, 156]

>  <energy_score>  (518) 
96.6436807506011

>  <distance_score>  (518) 
5.381396095061029

>  <path>  (518) 
/opt/xchem-fragalysis-2/maxwin/BulkDock/SCRATCH/505736/C2654-P156/C2654-P156.minimised.mol

>  <scratch_subdir>  (518) 
/opt/xchem-fragalysis-2/maxwin/BulkDock/SCRATCH/505736/C2654-P156

>  <fragmenstein_runtime>  (518) 
21.706287384033203

>  <fragmenstein_outcome>  (518) 
too moved

>  <fragmenstein_mode>  (518) 
expansion

>  <fragmenstein_error>  (518) 


$$$$
C2655-P177
     RDKit          3D

 52 57  0  0  0  0  0  0  0  0999 V2000
    2.1340   -1.1423   19.6133 O   0  0  0  0  0  0  0  0  0  0  0  0
    1.1973   -1.8269   19.7703 C   0  0  0  0  0  0  0  0  0  0  0  0
    0.1295   -1.6409   18.4164 C   0  0  0  0  0  0  0  0  0  0  0  0
    0.6832   -1.1562   16.7600 S   0  0  0  0  0  0  0  0  0  0  0  0
    0.6414    0.5378   18.2319 Cl  0  0  0  0  0  0  0  0  0  0  0  0
    0.8775   -3.0243   21.3964 N   0  0  0  0  0  0  0  0  0  0  0  0
    0.0018   -2.3540   22.7763 C   0  0  0  0  0  0  0  0  0  0  0  0
   -0.2035   -2.6958   24.3563 C   0  0  0  0  0  0  0  0  0  0  0  0
   -1.4770   -2.5955   25.0264 C   0  0  0  0  0  0  0  0  0  0  0  0
   -1.3001   -2.4040   26.3740 C   0  0  0  0  0  0  0  0  0  0  0  0
    0.2213   -2.9352   26.8528 S   0  0  0  0  0  0  0  0  0  0  0  0
    0.7716   -3.0383   25.2729 C   0  0  0  0  0  0  0  0  0  0  0  0
    2.1274   -3.4522   24.8954 C   0  0  0  0  0  0  0  0  0  0  0  0
    2.8660   -4.6941   26.0483 N   0  0  0  0  0  0  0  0  0  0  0  0
    2.6892   -5.1739   27.8604 N   0  0  0  0  0  0  0  0  0  0  0  0
    2.1832   -4.3883   28.9871 C   0  0  0  0  0  0  0  0  0  0  0  0
    2.5303   -2.6452   29.2198 S   0  0  0  0  0  0  0  0  0  0  0  0
    1.3501   -2.4204   30.5327 C   0  0  0  0  0  0  0  0  0  0  0  0
    0.1457   -1.8690   30.2705 C   0  0  0  0  0  0  0  0  0  0  0  0
   -0.9248   -1.9555   31.2543 C   0  0  0  0  0  0  0  0  0  0  0  0
   -0.7641   -2.6140   32.4165 C   0  0  0  0  0  0  0  0  0  0  0  0
    0.5018   -3.1700   32.7296 C   0  0  0  0  0  0  0  0  0  0  0  0
    0.9304   -3.8719   33.7570 N   0  0  0  0  0  0  0  0  0  0  0  0
    2.2747   -4.0943   33.5808 N   0  0  0  0  0  0  0  0  0  0  0  0
    2.6254   -3.5324   32.4449 C   0  0  0  0  0  0  0  0  0  0  0  0
    1.5333   -2.9933   31.8127 N   0  0  0  0  0  0  0  0  0  0  0  0
    1.6779   -4.9895   30.0810 N   0  0  0  0  0  0  0  0  0  0  0  0
    2.4918   -6.0047   30.4351 C   0  0  0  0  0  0  0  0  0  0  0  0
    2.9217   -7.0806   32.0254 C   0  0  0  0  0  0  0  0  0  0  0  0
    4.3930   -8.5962   31.8344 C   0  0  0  0  0  0  0  0  0  0  0  0
    4.8120   -9.1822   32.9657 F   0  0  0  0  0  0  0  0  0  0  0  0
    5.1800   -9.1152   30.1477 C   0  0  0  0  0  0  0  0  0  0  0  0
    4.6524   -7.8729   28.6341 C   0  0  0  0  0  0  0  0  0  0  0  0
    3.2702   -6.4868   28.7173 C   0  0  0  0  0  0  0  0  0  0  0  0
    2.0008   -3.4273   22.9094 C   0  0  0  0  0  0  0  0  0  0  0  0
   -0.9425   -1.6709   18.3649 H   0  0  0  0  0  0  0  0  0  0  0  0
    0.0220   -2.0150   15.9945 H   0  0  0  0  0  0  0  0  0  0  0  0
    0.0920   -3.3664   23.0684 H   0  0  0  0  0  0  0  0  0  0  0  0
   -1.0172   -2.1484   22.4718 H   0  0  0  0  0  0  0  0  0  0  0  0
   -2.4239   -2.4374   24.5306 H   0  0  0  0  0  0  0  0  0  0  0  0
   -2.0312   -2.0896   27.1043 H   0  0  0  0  0  0  0  0  0  0  0  0
    2.8235   -2.6221   25.0766 H   0  0  0  0  0  0  0  0  0  0  0  0
    3.8640   -4.4819   25.9627 H   0  0  0  0  0  0  0  0  0  0  0  0
   -0.0997   -1.4276   29.3117 H   0  0  0  0  0  0  0  0  0  0  0  0
   -1.8809   -1.5079   30.9998 H   0  0  0  0  0  0  0  0  0  0  0  0
   -1.5665   -2.7099   33.1411 H   0  0  0  0  0  0  0  0  0  0  0  0
    3.6194   -3.5122   32.0246 H   0  0  0  0  0  0  0  0  0  0  0  0
    2.5413   -6.7335   32.9902 H   0  0  0  0  0  0  0  0  0  0  0  0
    6.0406   -9.7559   30.0509 H   0  0  0  0  0  0  0  0  0  0  0  0
    5.1620   -7.9306   27.6657 H   0  0  0  0  0  0  0  0  0  0  0  0
    1.5353   -4.4199   22.8582 H   0  0  0  0  0  0  0  0  0  0  0  0
    2.9700   -3.6612   22.6515 H   0  0  0  0  0  0  0  0  0  0  0  0
  1  2  2  0
  2  3  1  0
  3  4  1  0
  3  5  1  0
  2  6  1  0
  6  7  1  0
  7  8  1  0
  8  9  1  0
  9 10  2  0
 10 11  1  0
 11 12  1  0
 12 13  1  0
 13 14  1  0
 14 15  1  0
 15 16  1  0
 16 17  1  0
 17 18  1  0
 18 19  2  0
 19 20  1  0
 20 21  2  0
 21 22  1  0
 22 23  2  0
 23 24  1  0
 24 25  2  0
 25 26  1  0
 16 27  2  0
 27 28  1  0
 28 29  2  0
 29 30  1  0
 30 31  1  0
 30 32  2  0
 32 33  1  0
 33 34  2  0
 13 35  1  0
 35  6  1  0
 12  8  2  0
 34 15  1  0
 26 18  1  0
 34 28  1  0
 26 22  1  0
  3 36  1  0
  4 37  1  0
  7 38  1  0
  7 39  1  0
  9 40  1  0
 10 41  1  0
 13 42  1  0
 14 43  1  0
 19 44  1  0
 20 45  1  0
 21 46  1  0
 25 47  1  0
 29 48  1  0
 32 49  1  0
 33 50  1  0
 35 51  1  0
 35 52  1  0
M  END
>  <Energy>  (519) 
1520.2625815702022

>  <compound_id>  (519) 
2655

>  <target_id>  (519) 
1

>  <reference_id>  (519) 
177

>  <inspiration_ids>  (519) 
[177, 157]

>  <energy_score>  (519) 
1334.7904219809357

>  <distance_score>  (519) 
6.604406029317866

>  <path>  (519) 
/opt/xchem-fragalysis-2/maxwin/BulkDock/SCRATCH/505736/C2655-P177/C2655-P177.minimised.mol

>  <scratch_subdir>  (519) 
/opt/xchem-fragalysis-2/maxwin/BulkDock/SCRATCH/505736/C2655-P177

>  <fragmenstein_runtime>  (519) 
34.75438380241394

>  <fragmenstein_outcome>  (519) 
too moved

>  <fragmenstein_mode>  (519) 
expansion

>  <fragmenstein_error>  (519) 


$$$$
C2655-P157
     RDKit          3D

 52 57  0  0  0  0  0  0  0  0999 V2000
    2.9622   -6.4326   25.3099 O   0  0  0  0  0  0  0  0  0  0  0  0
    2.3703   -5.4145   25.5593 C   0  0  0  0  0  0  0  0  0  0  0  0
    0.9808   -4.9003   24.1685 C   0  0  0  0  0  0  0  0  0  0  0  0
    1.5035   -3.4999   22.8928 S   0  0  0  0  0  0  0  0  0  0  0  0
    0.7078   -5.7093   22.6856 Cl  0  0  0  0  0  0  0  0  0  0  0  0
    2.4653   -4.6002   26.7700 N   0  0  0  0  0  0  0  0  0  0  0  0
    3.5693   -3.5126   26.6026 C   0  0  0  0  0  0  0  0  0  0  0  0
    3.4573   -2.3406   27.5306 C   0  0  0  0  0  0  0  0  0  0  0  0
    3.5700   -0.9505   27.2405 C   0  0  0  0  0  0  0  0  0  0  0  0
    3.4944   -0.1842   28.3843 C   0  0  0  0  0  0  0  0  0  0  0  0
    3.3411   -1.1411   29.7986 S   0  0  0  0  0  0  0  0  0  0  0  0
    3.3526   -2.5622   28.8850 C   0  0  0  0  0  0  0  0  0  0  0  0
    3.3596   -3.9561   29.4178 C   0  0  0  0  0  0  0  0  0  0  0  0
    2.4214   -4.1396   30.5497 N   0  0  0  0  0  0  0  0  0  0  0  0
    2.5890   -5.2951   31.4944 N   0  0  0  0  0  0  0  0  0  0  0  0
    2.1749   -5.3633   32.8749 C   0  0  0  0  0  0  0  0  0  0  0  0
    1.0815   -4.1380   33.5824 S   0  0  0  0  0  0  0  0  0  0  0  0
   -0.0637   -4.1681   32.2708 C   0  0  0  0  0  0  0  0  0  0  0  0
   -0.2362   -3.0363   31.5545 C   0  0  0  0  0  0  0  0  0  0  0  0
   -0.5596   -3.1545   30.1410 C   0  0  0  0  0  0  0  0  0  0  0  0
   -0.5466   -4.3547   29.5299 C   0  0  0  0  0  0  0  0  0  0  0  0
   -0.4760   -5.5498   30.3118 C   0  0  0  0  0  0  0  0  0  0  0  0
   -0.5725   -6.8321   30.0208 N   0  0  0  0  0  0  0  0  0  0  0  0
   -0.6371   -7.5345   31.2003 N   0  0  0  0  0  0  0  0  0  0  0  0
   -0.5400   -6.6695   32.1850 C   0  0  0  0  0  0  0  0  0  0  0  0
   -0.3913   -5.3996   31.6835 N   0  0  0  0  0  0  0  0  0  0  0  0
    2.4611   -6.4217   33.6383 N   0  0  0  0  0  0  0  0  0  0  0  0
    3.0305   -7.3515   32.8396 C   0  0  0  0  0  0  0  0  0  0  0  0
    4.0795   -9.0935   33.2696 C   0  0  0  0  0  0  0  0  0  0  0  0
    5.3664   -9.6095   31.9043 C   0  0  0  0  0  0  0  0  0  0  0  0
    6.4785  -10.1231   32.4672 F   0  0  0  0  0  0  0  0  0  0  0  0
    5.5462   -8.7853   30.0514 C   0  0  0  0  0  0  0  0  0  0  0  0
    4.3029   -7.2861   29.7743 C   0  0  0  0  0  0  0  0  0  0  0  0
    2.9542   -6.5734   31.0838 C   0  0  0  0  0  0  0  0  0  0  0  0
    3.2209   -4.8375   28.0924 C   0  0  0  0  0  0  0  0  0  0  0  0
   -0.0575   -4.9792   24.4998 H   0  0  0  0  0  0  0  0  0  0  0  0
    1.1681   -4.1455   21.7700 H   0  0  0  0  0  0  0  0  0  0  0  0
    3.6093   -3.2351   25.5510 H   0  0  0  0  0  0  0  0  0  0  0  0
    4.5937   -3.9313   26.6438 H   0  0  0  0  0  0  0  0  0  0  0  0
    3.7065   -0.5236   26.2513 H   0  0  0  0  0  0  0  0  0  0  0  0
    3.5406    0.8938   28.4612 H   0  0  0  0  0  0  0  0  0  0  0  0
    4.3678   -4.1381   29.8161 H   0  0  0  0  0  0  0  0  0  0  0  0
    2.4568   -3.2764   31.0971 H   0  0  0  0  0  0  0  0  0  0  0  0
    0.0989   -2.0622   31.9017 H   0  0  0  0  0  0  0  0  0  0  0  0
   -0.6717   -2.2432   29.5581 H   0  0  0  0  0  0  0  0  0  0  0  0
   -0.7097   -4.4250   28.4621 H   0  0  0  0  0  0  0  0  0  0  0  0
   -0.5505   -6.8983   33.2424 H   0  0  0  0  0  0  0  0  0  0  0  0
    4.2936   -9.2268   34.3348 H   0  0  0  0  0  0  0  0  0  0  0  0
    6.4917   -8.8573   29.5151 H   0  0  0  0  0  0  0  0  0  0  0  0
    4.7431   -6.5021   29.1582 H   0  0  0  0  0  0  0  0  0  0  0  0
    2.6593   -5.7155   28.4382 H   0  0  0  0  0  0  0  0  0  0  0  0
    4.1848   -5.3032   27.8398 H   0  0  0  0  0  0  0  0  0  0  0  0
  1  2  2  0
  2  3  1  0
  3  4  1  0
  3  5  1  0
  2  6  1  0
  6  7  1  0
  7  8  1  0
  8  9  1  0
  9 10  2  0
 10 11  1  0
 11 12  1  0
 12 13  1  0
 13 14  1  0
 14 15  1  0
 15 16  1  0
 16 17  1  0
 17 18  1  0
 18 19  2  0
 19 20  1  0
 20 21  2  0
 21 22  1  0
 22 23  2  0
 23 24  1  0
 24 25  2  0
 25 26  1  0
 16 27  2  0
 27 28  1  0
 28 29  2  0
 29 30  1  0
 30 31  1  0
 30 32  2  0
 32 33  1  0
 33 34  2  0
 13 35  1  0
 35  6  1  0
 12  8  2  0
 34 15  1  0
 26 18  1  0
 34 28  1  0
 26 22  1  0
  3 36  1  0
  4 37  1  0
  7 38  1  0
  7 39  1  0
  9 40  1  0
 10 41  1  0
 13 42  1  0
 14 43  1  0
 19 44  1  0
 20 45  1  0
 21 46  1  0
 25 47  1  0
 29 48  1  0
 32 49  1  0
 33 50  1  0
 35 51  1  0
 35 52  1  0
M  END
>  <Energy>  (520) 
1000.7936099972159

>  <compound_id>  (520) 
2655

>  <target_id>  (520) 
1

>  <reference_id>  (520) 
157

>  <inspiration_ids>  (520) 
[177, 157]

>  <energy_score>  (520) 
815.3214504079339

>  <distance_score>  (520) 
5.224721954784072

>  <path>  (520) 
/opt/xchem-fragalysis-2/maxwin/BulkDock/SCRATCH/505736/C2655-P157/C2655-P157.minimised.mol

>  <scratch_subdir>  (520) 
/opt/xchem-fragalysis-2/maxwin/BulkDock/SCRATCH/505736/C2655-P157

>  <fragmenstein_runtime>  (520) 
26.896833658218384

>  <fragmenstein_outcome>  (520) 
too moved

>  <fragmenstein_mode>  (520) 
expansion

>  <fragmenstein_error>  (520) 


$$$$
C2657-P177
     RDKit          3D

 50 53  0  0  0  0  0  0  0  0999 V2000
    0.4680   -5.0787   21.1870 O   0  0  0  0  0  0  0  0  0  0  0  0
    0.7395   -3.9051   21.0887 C   0  0  0  0  0  0  0  0  0  0  0  0
    0.7506   -3.3357   19.0108 C   0  0  0  0  0  0  0  0  0  0  0  0
   -0.1785   -1.6355   17.9235 S   0  0  0  0  0  0  0  0  0  0  0  0
    1.7494   -1.3518   18.6704 Cl  0  0  0  0  0  0  0  0  0  0  0  0
    0.8732   -2.9893   22.7290 N   0  0  0  0  0  0  0  0  0  0  0  0
    2.2959   -3.0400   23.2604 C   0  0  0  0  0  0  0  0  0  0  0  0
    3.1340   -2.5666   24.5053 C   0  0  0  0  0  0  0  0  0  0  0  0
    4.4488   -2.0337   24.6708 C   0  0  0  0  0  0  0  0  0  0  0  0
    4.8742   -1.8770   25.9778 C   0  0  0  0  0  0  0  0  0  0  0  0
    3.7480   -2.5454   27.0549 S   0  0  0  0  0  0  0  0  0  0  0  0
    2.8262   -2.9926   25.7366 C   0  0  0  0  0  0  0  0  0  0  0  0
    1.8193   -3.9819   25.7098 C   0  0  0  0  0  0  0  0  0  0  0  0
    0.5354   -3.5030   24.5274 C   0  0  0  0  0  0  0  0  0  0  0  0
   -0.4837   -3.0143   25.9785 C   0  0  0  0  0  0  0  0  0  0  0  0
   -0.8241   -4.1944   26.9456 C   0  0  0  0  0  0  0  0  0  0  0  0
   -0.1041   -4.9827   28.0528 C   0  0  0  0  0  0  0  0  0  0  0  0
    0.7631   -4.4215   28.8302 N   0  0  0  0  0  0  0  0  0  0  0  0
    1.0397   -5.0437   30.0146 C   0  0  0  0  0  0  0  0  0  0  0  0
    0.3512   -6.0774   30.4994 C   0  0  0  0  0  0  0  0  0  0  0  0
   -0.5422   -6.7688   29.5671 C   0  0  0  0  0  0  0  0  0  0  0  0
   -1.2543   -7.6899   29.9503 O   0  0  0  0  0  0  0  0  0  0  0  0
   -0.6152   -6.2317   28.3120 N   0  0  0  0  0  0  0  0  0  0  0  0
    0.2094   -2.0054   26.9476 N   0  0  0  0  0  0  0  0  0  0  0  0
   -0.5517   -1.1729   28.2286 S   0  0  0  0  0  0  0  0  0  0  0  0
   -1.9700   -1.1230   27.9308 O   0  0  0  0  0  0  0  0  0  0  0  0
    0.1905    0.0624   28.3664 O   0  0  0  0  0  0  0  0  0  0  0  0
   -0.4596   -1.9061   29.8647 C   0  0  0  0  0  0  0  0  0  0  0  0
   -1.3720   -2.5397   30.6983 C   0  0  0  0  0  0  0  0  0  0  0  0
   -0.7982   -2.8401   31.9707 C   0  0  0  0  0  0  0  0  0  0  0  0
    0.4695   -2.4824   32.1515 N   0  0  0  0  0  0  0  0  0  0  0  0
    0.9747   -1.6689   30.7766 S   0  0  0  0  0  0  0  0  0  0  0  0
    1.5494   -3.6662   18.2973 H   0  0  0  0  0  0  0  0  0  0  0  0
    0.7965   -1.4913   17.0229 H   0  0  0  0  0  0  0  0  0  0  0  0
    2.0592   -3.9967   23.6006 H   0  0  0  0  0  0  0  0  0  0  0  0
    2.8545   -3.6160   22.5895 H   0  0  0  0  0  0  0  0  0  0  0  0
    5.0393   -1.7256   23.8401 H   0  0  0  0  0  0  0  0  0  0  0  0
    5.7948   -1.4501   26.3435 H   0  0  0  0  0  0  0  0  0  0  0  0
    2.3356   -4.9238   25.5350 H   0  0  0  0  0  0  0  0  0  0  0  0
    1.4570   -4.0937   26.7071 H   0  0  0  0  0  0  0  0  0  0  0  0
    0.6975   -2.4212   24.5967 H   0  0  0  0  0  0  0  0  0  0  0  0
   -1.3914   -2.5623   25.5627 H   0  0  0  0  0  0  0  0  0  0  0  0
   -1.3713   -3.6260   27.6931 H   0  0  0  0  0  0  0  0  0  0  0  0
   -1.4394   -4.9038   26.3893 H   0  0  0  0  0  0  0  0  0  0  0  0
    1.7969   -4.5678   30.6336 H   0  0  0  0  0  0  0  0  0  0  0  0
    0.5013   -6.4924   31.4847 H   0  0  0  0  0  0  0  0  0  0  0  0
   -1.3409   -6.6244   27.7290 H   0  0  0  0  0  0  0  0  0  0  0  0
    1.0139   -1.4806   26.5983 H   0  0  0  0  0  0  0  0  0  0  0  0
   -2.3934   -2.7240   30.4051 H   0  0  0  0  0  0  0  0  0  0  0  0
   -1.3005   -3.3200   32.8023 H   0  0  0  0  0  0  0  0  0  0  0  0
  1  2  2  0
  2  3  1  0
  3  4  1  0
  3  5  1  0
  2  6  1  0
  6  7  1  0
  7  8  1  0
  8  9  1  0
  9 10  2  0
 10 11  1  0
 11 12  1  0
 12 13  1  0
 13 14  1  0
 14 15  1  0
 15 16  1  0
 16 17  1  0
 17 18  2  0
 18 19  1  0
 19 20  2  0
 20 21  1  0
 21 22  2  0
 21 23  1  0
 15 24  1  0
 24 25  1  0
 25 26  2  0
 25 27  2  0
 25 28  1  0
 28 29  2  0
 29 30  1  0
 30 31  2  0
 31 32  1  0
 14  6  1  0
 23 17  1  0
 32 28  1  0
 12  8  2  0
  3 33  1  0
  4 34  1  0
  7 35  1  0
  7 36  1  0
  9 37  1  0
 10 38  1  0
 13 39  1  0
 13 40  1  0
 14 41  1  0
 15 42  1  0
 16 43  1  0
 16 44  1  0
 19 45  1  0
 20 46  1  0
 23 47  1  0
 24 48  1  0
 29 49  1  0
 30 50  1  0
M  END
>  <Energy>  (521) 
620.86429512640393

>  <compound_id>  (521) 
2657

>  <target_id>  (521) 
1

>  <reference_id>  (521) 
177

>  <inspiration_ids>  (521) 
[177, 159]

>  <energy_score>  (521) 
568.9772694991

>  <distance_score>  (521) 
7.977666365310703

>  <path>  (521) 
/opt/xchem-fragalysis-2/maxwin/BulkDock/SCRATCH/505736/C2657-P177/C2657-P177.minimised.mol

>  <scratch_subdir>  (521) 
/opt/xchem-fragalysis-2/maxwin/BulkDock/SCRATCH/505736/C2657-P177

>  <fragmenstein_runtime>  (521) 
32.753538370132446

>  <fragmenstein_outcome>  (521) 
too moved

>  <fragmenstein_mode>  (521) 
expansion

>  <fragmenstein_error>  (521) 


$$$$
C2657-P159
     RDKit          3D

 50 53  0  0  0  0  0  0  0  0999 V2000
   -0.0615   -5.0713   25.2779 O   0  0  0  0  0  0  0  0  0  0  0  0
    1.0336   -5.3380   24.8630 C   0  0  0  0  0  0  0  0  0  0  0  0
    0.9885   -5.4439   23.2224 C   0  0  0  0  0  0  0  0  0  0  0  0
    1.3615   -3.9329   22.3640 S   0  0  0  0  0  0  0  0  0  0  0  0
    0.4923   -7.2648   22.0947 Cl  0  0  0  0  0  0  0  0  0  0  0  0
    2.4169   -5.5928   25.8851 N   0  0  0  0  0  0  0  0  0  0  0  0
    3.1933   -4.2395   26.1189 C   0  0  0  0  0  0  0  0  0  0  0  0
    4.5887   -4.3214   26.6430 C   0  0  0  0  0  0  0  0  0  0  0  0
    5.5966   -3.3229   26.5555 C   0  0  0  0  0  0  0  0  0  0  0  0
    6.7197   -3.6578   27.2838 C   0  0  0  0  0  0  0  0  0  0  0  0
    6.5288   -5.1454   28.1137 S   0  0  0  0  0  0  0  0  0  0  0  0
    4.9559   -5.2905   27.5306 C   0  0  0  0  0  0  0  0  0  0  0  0
    3.9639   -6.2598   27.9904 C   0  0  0  0  0  0  0  0  0  0  0  0
    2.5564   -5.6667   27.6416 C   0  0  0  0  0  0  0  0  0  0  0  0
    1.9567   -4.5379   28.7574 C   0  0  0  0  0  0  0  0  0  0  0  0
    2.9941   -3.8050   29.6242 C   0  0  0  0  0  0  0  0  0  0  0  0
    2.4459   -2.4845   30.1320 C   0  0  0  0  0  0  0  0  0  0  0  0
    1.9071   -2.4155   31.3067 N   0  0  0  0  0  0  0  0  0  0  0  0
    1.3918   -1.2023   31.6818 C   0  0  0  0  0  0  0  0  0  0  0  0
    1.4219   -0.0932   30.9380 C   0  0  0  0  0  0  0  0  0  0  0  0
    2.0632   -0.1796   29.6205 C   0  0  0  0  0  0  0  0  0  0  0  0
    2.1767    0.7954   28.8897 O   0  0  0  0  0  0  0  0  0  0  0  0
    2.5297   -1.4167   29.2811 N   0  0  0  0  0  0  0  0  0  0  0  0
    0.7353   -4.8165   29.5911 N   0  0  0  0  0  0  0  0  0  0  0  0
    0.2958   -5.7263   30.9136 S   0  0  0  0  0  0  0  0  0  0  0  0
    0.3951   -7.0948   30.4588 O   0  0  0  0  0  0  0  0  0  0  0  0
   -1.0038   -5.1967   31.2759 O   0  0  0  0  0  0  0  0  0  0  0  0
    1.1231   -5.6794   32.4685 C   0  0  0  0  0  0  0  0  0  0  0  0
    2.1731   -5.0505   33.1105 C   0  0  0  0  0  0  0  0  0  0  0  0
    2.3181   -5.5237   34.4537 C   0  0  0  0  0  0  0  0  0  0  0  0
    1.4624   -6.4542   34.8599 N   0  0  0  0  0  0  0  0  0  0  0  0
    0.3414   -6.6718   33.6601 S   0  0  0  0  0  0  0  0  0  0  0  0
    0.0163   -5.0782   23.3370 H   0  0  0  0  0  0  0  0  0  0  0  0
    0.8833   -4.2542   21.1532 H   0  0  0  0  0  0  0  0  0  0  0  0
    3.2685   -3.7474   25.1533 H   0  0  0  0  0  0  0  0  0  0  0  0
    2.6935   -3.5208   26.7523 H   0  0  0  0  0  0  0  0  0  0  0  0
    5.5039   -2.3964   26.0025 H   0  0  0  0  0  0  0  0  0  0  0  0
    7.6485   -3.1084   27.3627 H   0  0  0  0  0  0  0  0  0  0  0  0
    4.0428   -6.4574   29.0603 H   0  0  0  0  0  0  0  0  0  0  0  0
    4.1109   -7.1986   27.4447 H   0  0  0  0  0  0  0  0  0  0  0  0
    1.9835   -6.5591   27.8606 H   0  0  0  0  0  0  0  0  0  0  0  0
    1.5115   -3.7668   28.1210 H   0  0  0  0  0  0  0  0  0  0  0  0
    3.3079   -4.4242   30.4655 H   0  0  0  0  0  0  0  0  0  0  0  0
    3.8882   -3.5451   29.0624 H   0  0  0  0  0  0  0  0  0  0  0  0
    0.9233   -1.1749   32.6633 H   0  0  0  0  0  0  0  0  0  0  0  0
    1.0086    0.8541   31.2517 H   0  0  0  0  0  0  0  0  0  0  0  0
    2.9947   -1.4627   28.3870 H   0  0  0  0  0  0  0  0  0  0  0  0
   -0.1292   -4.6306   29.0588 H   0  0  0  0  0  0  0  0  0  0  0  0
    2.8161   -4.3056   32.6686 H   0  0  0  0  0  0  0  0  0  0  0  0
    3.0735   -5.1999   35.1601 H   0  0  0  0  0  0  0  0  0  0  0  0
  1  2  2  0
  2  3  1  0
  3  4  1  0
  3  5  1  0
  2  6  1  0
  6  7  1  0
  7  8  1  0
  8  9  1  0
  9 10  2  0
 10 11  1  0
 11 12  1  0
 12 13  1  0
 13 14  1  0
 14 15  1  0
 15 16  1  0
 16 17  1  0
 17 18  2  0
 18 19  1  0
 19 20  2  0
 20 21  1  0
 21 22  2  0
 21 23  1  0
 15 24  1  0
 24 25  1  0
 25 26  2  0
 25 27  2  0
 25 28  1  0
 28 29  2  0
 29 30  1  0
 30 31  2  0
 31 32  1  0
 14  6  1  0
 23 17  1  0
 32 28  1  0
 12  8  2  0
  3 33  1  0
  4 34  1  0
  7 35  1  0
  7 36  1  0
  9 37  1  0
 10 38  1  0
 13 39  1  0
 13 40  1  0
 14 41  1  0
 15 42  1  0
 16 43  1  0
 16 44  1  0
 19 45  1  0
 20 46  1  0
 23 47  1  0
 24 48  1  0
 29 49  1  0
 30 50  1  0
M  END
>  <Energy>  (522) 
202.90357964176718

>  <compound_id>  (522) 
2657

>  <target_id>  (522) 
1

>  <reference_id>  (522) 
159

>  <inspiration_ids>  (522) 
[177, 159]

>  <energy_score>  (522) 
151.0165540144714

>  <distance_score>  (522) 
6.3661929736428995

>  <path>  (522) 
/opt/xchem-fragalysis-2/maxwin/BulkDock/SCRATCH/505736/C2657-P159/C2657-P159.minimised.mol

>  <scratch_subdir>  (522) 
/opt/xchem-fragalysis-2/maxwin/BulkDock/SCRATCH/505736/C2657-P159

>  <fragmenstein_runtime>  (522) 
34.93933820724487

>  <fragmenstein_outcome>  (522) 
too moved

>  <fragmenstein_mode>  (522) 
expansion

>  <fragmenstein_error>  (522) 


$$$$
C2657-P177
     RDKit          2D

  0  0  0  0  0  0  0  0  0  0999 V2000
M  END
>  <compound_id>  (523) 
2657

>  <target_id>  (523) 
1

>  <reference_id>  (523) 
177

>  <inspiration_ids>  (523) 
[177, 162]

>  <energy_score>  (523) 
nan

>  <distance_score>  (523) 
nan

>  <path>  (523) 
/opt/xchem-fragalysis-2/maxwin/BulkDock/SCRATCH/505736/C2657-P177/C2657-P177.minimised.mol

>  <scratch_subdir>  (523) 
/opt/xchem-fragalysis-2/maxwin/BulkDock/SCRATCH/505736/C2657-P177

>  <fragmenstein_runtime>  (523) 
1.3149468898773193

>  <fragmenstein_outcome>  (523) 
crashed

>  <fragmenstein_mode>  (523) 
expansion

>  <fragmenstein_error>  (523) 
PoisonError: None has poison atoms [29, 29, 23, 17, 17, 17, 14, 23]

$$$$
C2658-P177
     RDKit          3D

 55 58  0  0  0  0  0  0  0  0999 V2000
    0.9278   -5.3623   22.3489 O   0  0  0  0  0  0  0  0  0  0  0  0
    1.0161   -4.1746   22.1730 C   0  0  0  0  0  0  0  0  0  0  0  0
    0.8847   -3.7969   20.2453 C   0  0  0  0  0  0  0  0  0  0  0  0
    0.9760   -2.2607   18.3342 S   0  0  0  0  0  0  0  0  0  0  0  0
    1.3631   -1.5493   19.2679 Cl  0  0  0  0  0  0  0  0  0  0  0  0
    1.0881   -3.0661   23.5811 N   0  0  0  0  0  0  0  0  0  0  0  0
    2.5231   -2.8261   24.0049 C   0  0  0  0  0  0  0  0  0  0  0  0
    3.5476   -3.1945   25.0387 C   0  0  0  0  0  0  0  0  0  0  0  0
    4.8643   -2.6556   25.1614 C   0  0  0  0  0  0  0  0  0  0  0  0
    5.5816   -3.2008   26.2071 C   0  0  0  0  0  0  0  0  0  0  0  0
    4.6042   -4.2589   27.1313 S   0  0  0  0  0  0  0  0  0  0  0  0
    3.2967   -3.9261   26.1280 C   0  0  0  0  0  0  0  0  0  0  0  0
    1.9220   -4.1845   26.3970 C   0  0  0  0  0  0  0  0  0  0  0  0
    0.9211   -3.3651   25.3995 C   0  0  0  0  0  0  0  0  0  0  0  0
   -0.4793   -3.2523   26.3723 C   0  0  0  0  0  0  0  0  0  0  0  0
   -0.9810   -1.8656   26.8885 C   0  0  0  0  0  0  0  0  0  0  0  0
   -0.1069   -0.9717   27.7344 C   0  0  0  0  0  0  0  0  0  0  0  0
    1.2008   -0.8829   27.4612 N   0  0  0  0  0  0  0  0  0  0  0  0
    1.9470   -0.0888   28.2595 C   0  0  0  0  0  0  0  0  0  0  0  0
    1.4377    0.6077   29.3224 C   0  0  0  0  0  0  0  0  0  0  0  0
    0.0967    0.4382   29.5003 C   0  0  0  0  0  0  0  0  0  0  0  0
   -0.5437    0.9985   30.5548 O   0  0  0  0  0  0  0  0  0  0  0  0
   -0.7098   -0.3028   28.7346 N   0  0  0  0  0  0  0  0  0  0  0  0
   -0.4880   -4.3458   27.6720 N   0  0  0  0  0  0  0  0  0  0  0  0
   -0.2060   -3.7239   29.2949 S   0  0  0  0  0  0  0  0  0  0  0  0
    1.1074   -3.1381   29.3860 O   0  0  0  0  0  0  0  0  0  0  0  0
   -1.4100   -3.0014   29.6509 O   0  0  0  0  0  0  0  0  0  0  0  0
   -0.1807   -5.0330   30.5104 C   0  0  0  0  0  0  0  0  0  0  0  0
   -0.4143   -6.3765   30.2388 C   0  0  0  0  0  0  0  0  0  0  0  0
   -0.6762   -7.2468   31.3153 C   0  0  0  0  0  0  0  0  0  0  0  0
   -0.6319   -6.7819   32.6313 C   0  0  0  0  0  0  0  0  0  0  0  0
   -0.8966   -7.5654   33.7102 O   0  0  0  0  0  0  0  0  0  0  0  0
   -0.3213   -5.4603   32.9026 C   0  0  0  0  0  0  0  0  0  0  0  0
   -0.1061   -4.5845   31.8450 C   0  0  0  0  0  0  0  0  0  0  0  0
    1.0687   -3.1234   21.0715 H   0  0  0  0  0  0  0  0  0  0  0  0
    2.0380   -2.8717   17.7900 H   0  0  0  0  0  0  0  0  0  0  0  0
    3.0147   -3.1979   23.1714 H   0  0  0  0  0  0  0  0  0  0  0  0
    2.4678   -1.8196   24.3466 H   0  0  0  0  0  0  0  0  0  0  0  0
    5.2511   -1.9173   24.4765 H   0  0  0  0  0  0  0  0  0  0  0  0
    6.6102   -3.0121   26.4811 H   0  0  0  0  0  0  0  0  0  0  0  0
    1.7508   -5.2406   26.5604 H   0  0  0  0  0  0  0  0  0  0  0  0
    1.7871   -3.7398   27.3762 H   0  0  0  0  0  0  0  0  0  0  0  0
    1.1863   -2.3325   25.6427 H   0  0  0  0  0  0  0  0  0  0  0  0
   -1.2743   -3.6401   25.7193 H   0  0  0  0  0  0  0  0  0  0  0  0
   -1.3473   -1.2882   26.0450 H   0  0  0  0  0  0  0  0  0  0  0  0
   -1.9007   -2.0275   27.4595 H   0  0  0  0  0  0  0  0  0  0  0  0
    3.0022   -0.0452   28.0062 H   0  0  0  0  0  0  0  0  0  0  0  0
    2.0438    1.2207   29.9694 H   0  0  0  0  0  0  0  0  0  0  0  0
   -1.4276    0.6203   30.3957 H   0  0  0  0  0  0  0  0  0  0  0  0
   -1.4963   -4.5687   27.6968 H   0  0  0  0  0  0  0  0  0  0  0  0
   -0.4635   -6.7411   29.2156 H   0  0  0  0  0  0  0  0  0  0  0  0
   -0.9227   -8.2829   31.1085 H   0  0  0  0  0  0  0  0  0  0  0  0
   -1.2130   -8.4502   33.4538 H   0  0  0  0  0  0  0  0  0  0  0  0
   -0.2946   -5.0999   33.9280 H   0  0  0  0  0  0  0  0  0  0  0  0
    0.0736   -3.5306   32.0587 H   0  0  0  0  0  0  0  0  0  0  0  0
  1  2  2  0
  2  3  1  0
  3  4  1  0
  3  5  1  0
  2  6  1  0
  6  7  1  0
  7  8  1  0
  8  9  1  0
  9 10  2  0
 10 11  1  0
 11 12  1  0
 12 13  1  0
 13 14  1  0
 14 15  1  0
 15 16  1  0
 16 17  1  0
 17 18  2  0
 18 19  1  0
 19 20  2  0
 20 21  1  0
 21 22  1  0
 21 23  2  0
 15 24  1  0
 24 25  1  0
 25 26  2  0
 25 27  2  0
 25 28  1  0
 28 29  2  0
 29 30  1  0
 30 31  2  0
 31 32  1  0
 31 33  1  0
 33 34  2  0
 14  6  1  0
 23 17  1  0
 34 28  1  0
 12  8  2  0
  3 35  1  0
  4 36  1  0
  7 37  1  0
  7 38  1  0
  9 39  1  0
 10 40  1  0
 13 41  1  0
 13 42  1  0
 14 43  1  0
 15 44  1  0
 16 45  1  0
 16 46  1  0
 19 47  1  0
 20 48  1  0
 22 49  1  0
 24 50  1  0
 29 51  1  0
 30 52  1  0
 32 53  1  0
 33 54  1  0
 34 55  1  0
M  END
>  <Energy>  (524) 
726.03750238961197

>  <compound_id>  (524) 
2658

>  <target_id>  (524) 
1

>  <reference_id>  (524) 
177

>  <inspiration_ids>  (524) 
[177, 163]

>  <energy_score>  (524) 
650.3392192026506

>  <distance_score>  (524) 
4.89160985405062

>  <path>  (524) 
/opt/xchem-fragalysis-2/maxwin/BulkDock/SCRATCH/505736/C2658-P177/C2658-P177.minimised.mol

>  <scratch_subdir>  (524) 
/opt/xchem-fragalysis-2/maxwin/BulkDock/SCRATCH/505736/C2658-P177

>  <fragmenstein_runtime>  (524) 
22.590656280517578

>  <fragmenstein_outcome>  (524) 
too moved

>  <fragmenstein_mode>  (524) 
expansion

>  <fragmenstein_error>  (524) 


$$$$
C2658-P163
     RDKit          3D

 55 58  0  0  0  0  0  0  0  0999 V2000
    0.4248   -2.7727   23.3107 O   0  0  0  0  0  0  0  0  0  0  0  0
    1.4592   -3.0534   22.8176 C   0  0  0  0  0  0  0  0  0  0  0  0
    1.2332   -3.1469   21.0104 C   0  0  0  0  0  0  0  0  0  0  0  0
    1.3216   -1.4116   19.1409 S   0  0  0  0  0  0  0  0  0  0  0  0
    1.1887   -4.8305   21.1322 Cl  0  0  0  0  0  0  0  0  0  0  0  0
    2.9220   -3.4638   23.8320 N   0  0  0  0  0  0  0  0  0  0  0  0
    3.9344   -2.0818   24.2242 C   0  0  0  0  0  0  0  0  0  0  0  0
    5.1143   -2.2737   25.2955 C   0  0  0  0  0  0  0  0  0  0  0  0
    5.7124   -1.2116   26.0530 C   0  0  0  0  0  0  0  0  0  0  0  0
    6.6256   -1.6549   26.9885 C   0  0  0  0  0  0  0  0  0  0  0  0
    6.6658   -3.3609   27.0759 S   0  0  0  0  0  0  0  0  0  0  0  0
    5.4295   -3.4626   25.9268 C   0  0  0  0  0  0  0  0  0  0  0  0
    4.4531   -4.5568   25.8776 C   0  0  0  0  0  0  0  0  0  0  0  0
    3.1245   -3.6855   25.7270 C   0  0  0  0  0  0  0  0  0  0  0  0
    2.2639   -4.0267   27.3000 C   0  0  0  0  0  0  0  0  0  0  0  0
    1.1706   -3.1301   28.0410 C   0  0  0  0  0  0  0  0  0  0  0  0
    1.4620   -1.6937   28.4066 C   0  0  0  0  0  0  0  0  0  0  0  0
    2.7425   -1.2878   28.5218 N   0  0  0  0  0  0  0  0  0  0  0  0
    2.9417   -0.0419   29.0066 C   0  0  0  0  0  0  0  0  0  0  0  0
    1.9281    0.7961   29.3954 C   0  0  0  0  0  0  0  0  0  0  0  0
    0.6784    0.2674   29.2515 C   0  0  0  0  0  0  0  0  0  0  0  0
   -0.4211    0.9829   29.5958 O   0  0  0  0  0  0  0  0  0  0  0  0
    0.4029   -0.9541   28.7869 N   0  0  0  0  0  0  0  0  0  0  0  0
    3.3182   -4.0057   28.3572 N   0  0  0  0  0  0  0  0  0  0  0  0
    3.5379   -5.1826   29.4789 S   0  0  0  0  0  0  0  0  0  0  0  0
    3.3206   -6.4425   28.7945 O   0  0  0  0  0  0  0  0  0  0  0  0
    4.7974   -4.8699   30.1144 O   0  0  0  0  0  0  0  0  0  0  0  0
    2.2572   -5.0074   30.7247 C   0  0  0  0  0  0  0  0  0  0  0  0
    1.0914   -5.7899   30.6785 C   0  0  0  0  0  0  0  0  0  0  0  0
    0.1624   -5.7450   31.7302 C   0  0  0  0  0  0  0  0  0  0  0  0
    0.4169   -4.9320   32.8293 C   0  0  0  0  0  0  0  0  0  0  0  0
   -0.4320   -4.8449   33.8896 O   0  0  0  0  0  0  0  0  0  0  0  0
    1.5817   -4.1725   32.8938 C   0  0  0  0  0  0  0  0  0  0  0  0
    2.5051   -4.2070   31.8443 C   0  0  0  0  0  0  0  0  0  0  0  0
    0.2407   -3.0209   21.3442 H   0  0  0  0  0  0  0  0  0  0  0  0
    2.5663   -1.4546   18.6309 H   0  0  0  0  0  0  0  0  0  0  0  0
    4.4973   -1.9062   23.3290 H   0  0  0  0  0  0  0  0  0  0  0  0
    3.4521   -1.1752   24.5786 H   0  0  0  0  0  0  0  0  0  0  0  0
    5.4938   -0.1675   25.8921 H   0  0  0  0  0  0  0  0  0  0  0  0
    7.2534   -1.0627   27.6389 H   0  0  0  0  0  0  0  0  0  0  0  0
    4.4823   -5.1725   26.7742 H   0  0  0  0  0  0  0  0  0  0  0  0
    4.6480   -5.2766   25.0949 H   0  0  0  0  0  0  0  0  0  0  0  0
    3.3290   -2.7053   26.1871 H   0  0  0  0  0  0  0  0  0  0  0  0
    1.9073   -5.0546   27.2046 H   0  0  0  0  0  0  0  0  0  0  0  0
    0.1724   -3.1944   27.6199 H   0  0  0  0  0  0  0  0  0  0  0  0
    0.9850   -3.6002   29.0118 H   0  0  0  0  0  0  0  0  0  0  0  0
    3.9810    0.2677   29.0749 H   0  0  0  0  0  0  0  0  0  0  0  0
    2.0982    1.7905   29.7787 H   0  0  0  0  0  0  0  0  0  0  0  0
   -1.1175    0.3794   29.2766 H   0  0  0  0  0  0  0  0  0  0  0  0
    3.8296   -3.1238   28.4998 H   0  0  0  0  0  0  0  0  0  0  0  0
    0.9115   -6.4535   29.8386 H   0  0  0  0  0  0  0  0  0  0  0  0
   -0.7295   -6.3617   31.6876 H   0  0  0  0  0  0  0  0  0  0  0  0
   -1.3102   -5.2041   33.6764 H   0  0  0  0  0  0  0  0  0  0  0  0
    1.7749   -3.5523   33.7663 H   0  0  0  0  0  0  0  0  0  0  0  0
    3.4209   -3.6232   31.9191 H   0  0  0  0  0  0  0  0  0  0  0  0
  1  2  2  0
  2  3  1  0
  3  4  1  0
  3  5  1  0
  2  6  1  0
  6  7  1  0
  7  8  1  0
  8  9  1  0
  9 10  2  0
 10 11  1  0
 11 12  1  0
 12 13  1  0
 13 14  1  0
 14 15  1  0
 15 16  1  0
 16 17  1  0
 17 18  2  0
 18 19  1  0
 19 20  2  0
 20 21  1  0
 21 22  1  0
 21 23  2  0
 15 24  1  0
 24 25  1  0
 25 26  2  0
 25 27  2  0
 25 28  1  0
 28 29  2  0
 29 30  1  0
 30 31  2  0
 31 32  1  0
 31 33  1  0
 33 34  2  0
 14  6  1  0
 23 17  1  0
 34 28  1  0
 12  8  2  0
  3 35  1  0
  4 36  1  0
  7 37  1  0
  7 38  1  0
  9 39  1  0
 10 40  1  0
 13 41  1  0
 13 42  1  0
 14 43  1  0
 15 44  1  0
 16 45  1  0
 16 46  1  0
 19 47  1  0
 20 48  1  0
 22 49  1  0
 24 50  1  0
 29 51  1  0
 30 52  1  0
 32 53  1  0
 33 54  1  0
 34 55  1  0
M  END
>  <Energy>  (525) 
510.04194226508048

>  <compound_id>  (525) 
2658

>  <target_id>  (525) 
1

>  <reference_id>  (525) 
163

>  <inspiration_ids>  (525) 
[177, 163]

>  <energy_score>  (525) 
434.34365907813446

>  <distance_score>  (525) 
4.925297881083001

>  <path>  (525) 
/opt/xchem-fragalysis-2/maxwin/BulkDock/SCRATCH/505736/C2658-P163/C2658-P163.minimised.mol

>  <scratch_subdir>  (525) 
/opt/xchem-fragalysis-2/maxwin/BulkDock/SCRATCH/505736/C2658-P163

>  <fragmenstein_runtime>  (525) 
21.140804290771484

>  <fragmenstein_outcome>  (525) 
too moved

>  <fragmenstein_mode>  (525) 
expansion

>  <fragmenstein_error>  (525) 


$$$$
C2658-P177
     RDKit          2D

  0  0  0  0  0  0  0  0  0  0999 V2000
M  END
>  <compound_id>  (526) 
2658

>  <target_id>  (526) 
1

>  <reference_id>  (526) 
177

>  <inspiration_ids>  (526) 
[177, 164]

>  <energy_score>  (526) 
nan

>  <distance_score>  (526) 
nan

>  <path>  (526) 
/opt/xchem-fragalysis-2/maxwin/BulkDock/SCRATCH/505736/C2658-P177/C2658-P177.minimised.mol

>  <scratch_subdir>  (526) 
/opt/xchem-fragalysis-2/maxwin/BulkDock/SCRATCH/505736/C2658-P177

>  <fragmenstein_runtime>  (526) 
1.5182907581329346

>  <fragmenstein_outcome>  (526) 
too distant

>  <fragmenstein_mode>  (526) 
expansion

>  <fragmenstein_error>  (526) 
DistanceError: hit0

$$$$
C2659-P177
     RDKit          3D

 61 64  0  0  0  0  0  0  0  0999 V2000
    3.0857   -3.9954   31.8157 C   0  0  0  0  0  0  0  0  0  0  0  0
    1.6635   -4.3569   31.5385 C   0  0  0  0  0  0  0  0  0  0  0  0
    0.9973   -5.2421   32.3449 C   0  0  0  0  0  0  0  0  0  0  0  0
   -0.3127   -5.4345   32.0167 C   0  0  0  0  0  0  0  0  0  0  0  0
   -1.0468   -6.3176   32.7464 O   0  0  0  0  0  0  0  0  0  0  0  0
   -0.9747   -4.8260   31.0206 N   0  0  0  0  0  0  0  0  0  0  0  0
   -0.2439   -3.9749   30.2722 C   0  0  0  0  0  0  0  0  0  0  0  0
   -0.8895   -3.1503   29.1471 C   0  0  0  0  0  0  0  0  0  0  0  0
   -2.3523   -2.4725   29.5739 C   0  0  0  0  0  0  0  0  0  0  0  0
   -3.9125   -2.9737   30.5112 N   0  0  0  0  0  0  0  0  0  0  0  0
   -5.4051   -3.5144   28.8986 S   0  0  0  0  0  0  0  0  0  0  0  0
   -6.7891   -3.0759   29.0509 O   0  0  0  0  0  0  0  0  0  0  0  0
   -4.7845   -3.0239   27.7204 O   0  0  0  0  0  0  0  0  0  0  0  0
   -5.6599   -5.3235   29.2934 N   0  0  0  0  0  0  0  0  0  0  0  0
   -6.0070   -4.8803   30.6323 C   0  0  0  0  0  0  0  0  0  0  0  0
   -6.5958   -6.3502   31.0927 C   0  0  0  0  0  0  0  0  0  0  0  0
   -6.5014   -6.7961   29.3494 C   0  0  0  0  0  0  0  0  0  0  0  0
   -5.3662   -7.4034   28.9727 C   0  0  0  0  0  0  0  0  0  0  0  0
   -0.5066   -3.6062   27.6438 N   0  0  0  0  0  0  0  0  0  0  0  0
    0.4727   -2.7563   26.7429 C   0  0  0  0  0  0  0  0  0  0  0  0
   -0.0173   -2.5923   25.2203 C   0  0  0  0  0  0  0  0  0  0  0  0
    0.6885   -2.1930   23.5845 N   0  0  0  0  0  0  0  0  0  0  0  0
   -0.0461   -1.9981   21.9994 C   0  0  0  0  0  0  0  0  0  0  0  0
   -1.1643   -2.2683   22.0699 O   0  0  0  0  0  0  0  0  0  0  0  0
    0.7759   -1.2103   20.0376 C   0  0  0  0  0  0  0  0  0  0  0  0
    0.8478   -1.9628   18.2176 S   0  0  0  0  0  0  0  0  0  0  0  0
    0.6739    0.1207   18.2036 Cl  0  0  0  0  0  0  0  0  0  0  0  0
    1.2072   -3.4852   23.7610 C   0  0  0  0  0  0  0  0  0  0  0  0
    2.2144   -3.4147   25.0609 C   0  0  0  0  0  0  0  0  0  0  0  0
    3.6037   -3.0539   25.0582 C   0  0  0  0  0  0  0  0  0  0  0  0
    4.2123   -3.1753   26.2903 C   0  0  0  0  0  0  0  0  0  0  0  0
    3.0664   -3.4575   27.5231 S   0  0  0  0  0  0  0  0  0  0  0  0
    1.8031   -3.3130   26.4020 C   0  0  0  0  0  0  0  0  0  0  0  0
    1.0598   -3.7225   30.5133 N   0  0  0  0  0  0  0  0  0  0  0  0
    3.6457   -4.8529   32.1999 H   0  0  0  0  0  0  0  0  0  0  0  0
    3.1255   -3.1923   32.5583 H   0  0  0  0  0  0  0  0  0  0  0  0
    3.5834   -3.6500   30.9043 H   0  0  0  0  0  0  0  0  0  0  0  0
    1.4573   -5.7463   33.1810 H   0  0  0  0  0  0  0  0  0  0  0  0
   -1.9148   -6.2386   32.3166 H   0  0  0  0  0  0  0  0  0  0  0  0
   -0.2846   -2.2300   29.1734 H   0  0  0  0  0  0  0  0  0  0  0  0
   -2.6739   -2.0333   28.6200 H   0  0  0  0  0  0  0  0  0  0  0  0
   -2.0706   -1.6353   30.2372 H   0  0  0  0  0  0  0  0  0  0  0  0
   -4.3090   -2.2596   31.1287 H   0  0  0  0  0  0  0  0  0  0  0  0
   -5.3679   -4.2972   31.3066 H   0  0  0  0  0  0  0  0  0  0  0  0
   -6.7737   -4.0798   30.5950 H   0  0  0  0  0  0  0  0  0  0  0  0
   -7.4352   -6.6764   31.7033 H   0  0  0  0  0  0  0  0  0  0  0  0
   -6.1531   -7.0816   31.7488 H   0  0  0  0  0  0  0  0  0  0  0  0
   -6.9327   -5.8912   28.4092 H   0  0  0  0  0  0  0  0  0  0  0  0
   -6.5540   -8.1536   28.9863 H   0  0  0  0  0  0  0  0  0  0  0  0
   -4.2422   -7.5086   29.1598 H   0  0  0  0  0  0  0  0  0  0  0  0
   -5.2843   -7.8481   27.9176 H   0  0  0  0  0  0  0  0  0  0  0  0
   -1.4260   -3.6400   27.1787 H   0  0  0  0  0  0  0  0  0  0  0  0
    0.5569   -1.7514   27.1716 H   0  0  0  0  0  0  0  0  0  0  0  0
   -0.9600   -2.0196   25.3044 H   0  0  0  0  0  0  0  0  0  0  0  0
   -0.6199   -3.4943   25.0042 H   0  0  0  0  0  0  0  0  0  0  0  0
    1.8086   -1.3187   19.8680 H   0  0  0  0  0  0  0  0  0  0  0  0
    1.9236   -1.2506   17.8907 H   0  0  0  0  0  0  0  0  0  0  0  0
    1.8436   -3.6774   22.9022 H   0  0  0  0  0  0  0  0  0  0  0  0
    0.4064   -4.1599   23.6412 H   0  0  0  0  0  0  0  0  0  0  0  0
    4.1487   -2.7226   24.1880 H   0  0  0  0  0  0  0  0  0  0  0  0
    5.2598   -3.0433   26.5246 H   0  0  0  0  0  0  0  0  0  0  0  0
  1  2  1  0
  2  3  2  0
  3  4  1  0
  4  5  1  0
  4  6  2  0
  6  7  1  0
  7  8  1  0
  8  9  1  0
  9 10  1  0
 10 11  1  0
 11 12  2  0
 11 13  2  0
 11 14  1  0
 14 15  1  0
 15 16  1  0
 16 17  1  0
 17 18  1  0
  8 19  1  0
 19 20  1  0
 20 21  1  0
 21 22  1  0
 22 23  1  0
 23 24  2  0
 23 25  1  0
 25 26  1  0
 25 27  1  0
 22 28  1  0
 28 29  1  0
 29 30  1  0
 30 31  2  0
 31 32  1  0
 32 33  1  0
  7 34  2  0
 34  2  1  0
 18 14  1  0
 33 20  1  0
 33 29  2  0
  1 35  1  0
  1 36  1  0
  1 37  1  0
  3 38  1  0
  5 39  1  0
  8 40  1  0
  9 41  1  0
  9 42  1  0
 10 43  1  0
 15 44  1  0
 15 45  1  0
 16 46  1  0
 16 47  1  0
 17 48  1  0
 17 49  1  0
 18 50  1  0
 18 51  1  0
 19 52  1  0
 20 53  1  0
 21 54  1  0
 21 55  1  0
 25 56  1  0
 26 57  1  0
 28 58  1  0
 28 59  1  0
 30 60  1  0
 31 61  1  0
M  END
>  <Energy>  (527) 
1146.1411026709252

>  <compound_id>  (527) 
2659

>  <target_id>  (527) 
1

>  <reference_id>  (527) 
177

>  <inspiration_ids>  (527) 
[177, 165]

>  <energy_score>  (527) 
1136.1613993308556

>  <distance_score>  (527) 
5.463778562792918

>  <path>  (527) 
/opt/xchem-fragalysis-2/maxwin/BulkDock/SCRATCH/505736/C2659-P177/C2659-P177.minimised.mol

>  <scratch_subdir>  (527) 
/opt/xchem-fragalysis-2/maxwin/BulkDock/SCRATCH/505736/C2659-P177

>  <fragmenstein_runtime>  (527) 
22.251980781555176

>  <fragmenstein_outcome>  (527) 
too moved

>  <fragmenstein_mode>  (527) 
expansion

>  <fragmenstein_error>  (527) 


$$$$
C2659-P165
     RDKit          3D

 61 64  0  0  0  0  0  0  0  0999 V2000
   -1.0784   -8.0353   32.3851 C   0  0  0  0  0  0  0  0  0  0  0  0
   -0.8407   -6.5974   32.6678 C   0  0  0  0  0  0  0  0  0  0  0  0
   -0.3523   -6.1503   33.8679 C   0  0  0  0  0  0  0  0  0  0  0  0
   -0.2555   -4.7907   33.9724 C   0  0  0  0  0  0  0  0  0  0  0  0
    0.2116   -4.2418   35.1222 O   0  0  0  0  0  0  0  0  0  0  0  0
   -0.5896   -3.9031   33.0276 N   0  0  0  0  0  0  0  0  0  0  0  0
   -1.0612   -4.4411   31.8929 C   0  0  0  0  0  0  0  0  0  0  0  0
   -1.4608   -3.5231   30.7273 C   0  0  0  0  0  0  0  0  0  0  0  0
   -3.1355   -2.8962   31.0588 C   0  0  0  0  0  0  0  0  0  0  0  0
   -4.9026   -3.5833   30.8860 N   0  0  0  0  0  0  0  0  0  0  0  0
   -5.7072   -3.9550   28.9948 S   0  0  0  0  0  0  0  0  0  0  0  0
   -7.0775   -3.4777   29.0873 O   0  0  0  0  0  0  0  0  0  0  0  0
   -4.8536   -3.2308   28.1008 O   0  0  0  0  0  0  0  0  0  0  0  0
   -5.8377   -5.9327   28.0249 N   0  0  0  0  0  0  0  0  0  0  0  0
   -6.2476   -6.3842   29.2595 C   0  0  0  0  0  0  0  0  0  0  0  0
   -5.6432   -7.9137   29.2194 C   0  0  0  0  0  0  0  0  0  0  0  0
   -6.4743   -8.8645   28.5448 C   0  0  0  0  0  0  0  0  0  0  0  0
   -5.2737   -7.9065   27.8531 C   0  0  0  0  0  0  0  0  0  0  0  0
   -0.6412   -3.9909   29.4210 N   0  0  0  0  0  0  0  0  0  0  0  0
    0.9445   -3.9583   29.4889 C   0  0  0  0  0  0  0  0  0  0  0  0
    2.1117   -4.9261   28.4459 C   0  0  0  0  0  0  0  0  0  0  0  0
    1.7424   -4.7050   26.9540 N   0  0  0  0  0  0  0  0  0  0  0  0
    2.1715   -5.5085   25.6328 C   0  0  0  0  0  0  0  0  0  0  0  0
    2.9702   -6.4188   25.5287 O   0  0  0  0  0  0  0  0  0  0  0  0
    0.9969   -4.8696   24.0865 C   0  0  0  0  0  0  0  0  0  0  0  0
    0.7592   -5.5829   22.5466 S   0  0  0  0  0  0  0  0  0  0  0  0
    1.5689   -3.4447   22.8821 Cl  0  0  0  0  0  0  0  0  0  0  0  0
    2.6752   -3.4497   27.1522 C   0  0  0  0  0  0  0  0  0  0  0  0
    2.2027   -2.3410   28.0229 C   0  0  0  0  0  0  0  0  0  0  0  0
    2.5855   -0.9701   27.9154 C   0  0  0  0  0  0  0  0  0  0  0  0
    2.1155   -0.2261   28.9724 C   0  0  0  0  0  0  0  0  0  0  0  0
    1.2616   -1.1871   30.1000 S   0  0  0  0  0  0  0  0  0  0  0  0
    1.4355   -2.5748   29.1434 C   0  0  0  0  0  0  0  0  0  0  0  0
   -1.1738   -5.7630   31.6752 N   0  0  0  0  0  0  0  0  0  0  0  0
   -2.1209   -8.1987   32.0984 H   0  0  0  0  0  0  0  0  0  0  0  0
   -0.4348   -8.3707   31.5692 H   0  0  0  0  0  0  0  0  0  0  0  0
   -0.8798   -8.6223   33.2757 H   0  0  0  0  0  0  0  0  0  0  0  0
   -0.0916   -6.8055   34.6866 H   0  0  0  0  0  0  0  0  0  0  0  0
    0.0705   -3.2952   34.9424 H   0  0  0  0  0  0  0  0  0  0  0  0
   -0.9442   -2.5843   30.9493 H   0  0  0  0  0  0  0  0  0  0  0  0
   -3.1130   -1.8382   30.8034 H   0  0  0  0  0  0  0  0  0  0  0  0
   -3.1492   -2.8302   32.1613 H   0  0  0  0  0  0  0  0  0  0  0  0
   -5.5181   -2.8309   31.2248 H   0  0  0  0  0  0  0  0  0  0  0  0
   -6.1351   -5.7717   30.1595 H   0  0  0  0  0  0  0  0  0  0  0  0
   -6.9753   -5.9157   28.5617 H   0  0  0  0  0  0  0  0  0  0  0  0
   -4.4365   -7.8149   29.3324 H   0  0  0  0  0  0  0  0  0  0  0  0
   -5.6274   -8.4622   30.2036 H   0  0  0  0  0  0  0  0  0  0  0  0
   -7.0303   -9.0795   27.6337 H   0  0  0  0  0  0  0  0  0  0  0  0
   -6.7003   -9.6541   29.2702 H   0  0  0  0  0  0  0  0  0  0  0  0
   -4.1803   -7.8455   27.6410 H   0  0  0  0  0  0  0  0  0  0  0  0
   -5.5344   -8.4173   26.9686 H   0  0  0  0  0  0  0  0  0  0  0  0
   -0.9621   -3.4366   28.6213 H   0  0  0  0  0  0  0  0  0  0  0  0
    1.2430   -4.2415   30.5044 H   0  0  0  0  0  0  0  0  0  0  0  0
    3.1498   -4.8870   28.8103 H   0  0  0  0  0  0  0  0  0  0  0  0
    1.8298   -5.9633   28.6588 H   0  0  0  0  0  0  0  0  0  0  0  0
   -0.0710   -4.8531   24.3078 H   0  0  0  0  0  0  0  0  0  0  0  0
    0.4585   -6.8317   22.9281 H   0  0  0  0  0  0  0  0  0  0  0  0
    3.1023   -3.1808   26.1970 H   0  0  0  0  0  0  0  0  0  0  0  0
    3.6740   -3.7631   27.5181 H   0  0  0  0  0  0  0  0  0  0  0  0
    3.1937   -0.5518   27.1207 H   0  0  0  0  0  0  0  0  0  0  0  0
    2.2554    0.8310   29.1537 H   0  0  0  0  0  0  0  0  0  0  0  0
  1  2  1  0
  2  3  2  0
  3  4  1  0
  4  5  1  0
  4  6  2  0
  6  7  1  0
  7  8  1  0
  8  9  1  0
  9 10  1  0
 10 11  1  0
 11 12  2  0
 11 13  2  0
 11 14  1  0
 14 15  1  0
 15 16  1  0
 16 17  1  0
 17 18  1  0
  8 19  1  0
 19 20  1  0
 20 21  1  0
 21 22  1  0
 22 23  1  0
 23 24  2  0
 23 25  1  0
 25 26  1  0
 25 27  1  0
 22 28  1  0
 28 29  1  0
 29 30  1  0
 30 31  2  0
 31 32  1  0
 32 33  1  0
  7 34  2  0
 34  2  1  0
 18 14  1  0
 33 20  1  0
 33 29  2  0
  1 35  1  0
  1 36  1  0
  1 37  1  0
  3 38  1  0
  5 39  1  0
  8 40  1  0
  9 41  1  0
  9 42  1  0
 10 43  1  0
 15 44  1  0
 15 45  1  0
 16 46  1  0
 16 47  1  0
 17 48  1  0
 17 49  1  0
 18 50  1  0
 18 51  1  0
 19 52  1  0
 20 53  1  0
 21 54  1  0
 21 55  1  0
 25 56  1  0
 26 57  1  0
 28 58  1  0
 28 59  1  0
 30 60  1  0
 31 61  1  0
M  END
>  <Energy>  (528) 
782.4339404532343

>  <compound_id>  (528) 
2659

>  <target_id>  (528) 
1

>  <reference_id>  (528) 
165

>  <inspiration_ids>  (528) 
[177, 165]

>  <energy_score>  (528) 
772.4542371131646

>  <distance_score>  (528) 
5.648307910331385

>  <path>  (528) 
/opt/xchem-fragalysis-2/maxwin/BulkDock/SCRATCH/505736/C2659-P165/C2659-P165.minimised.mol

>  <scratch_subdir>  (528) 
/opt/xchem-fragalysis-2/maxwin/BulkDock/SCRATCH/505736/C2659-P165

>  <fragmenstein_runtime>  (528) 
24.6504967212677

>  <fragmenstein_outcome>  (528) 
too moved

>  <fragmenstein_mode>  (528) 
expansion

>  <fragmenstein_error>  (528) 


$$$$
C2660-P177
     RDKit          3D

 59 62  0  0  0  0  0  0  0  0999 V2000
    1.6697   -2.0916   33.6199 C   0  0  0  0  0  0  0  0  0  0  0  0
    2.7032   -2.6604   32.6856 C   0  0  0  0  0  0  0  0  0  0  0  0
    3.3889   -3.7783   33.0941 C   0  0  0  0  0  0  0  0  0  0  0  0
    4.3452   -4.1958   32.2219 C   0  0  0  0  0  0  0  0  0  0  0  0
    5.1623   -5.2243   32.5758 O   0  0  0  0  0  0  0  0  0  0  0  0
    4.6214   -3.6487   31.0291 N   0  0  0  0  0  0  0  0  0  0  0  0
    3.8969   -2.5598   30.6783 C   0  0  0  0  0  0  0  0  0  0  0  0
    4.3995   -1.7696   29.4526 C   0  0  0  0  0  0  0  0  0  0  0  0
    3.4753   -1.4518   28.1966 C   0  0  0  0  0  0  0  0  0  0  0  0
    4.3508   -0.9056   26.9888 N   0  0  0  0  0  0  0  0  0  0  0  0
    3.7793   -0.9763   25.4471 C   0  0  0  0  0  0  0  0  0  0  0  0
    2.7674   -2.2858   25.5096 C   0  0  0  0  0  0  0  0  0  0  0  0
    3.7392   -3.3837   25.7777 C   0  0  0  0  0  0  0  0  0  0  0  0
    3.6907   -4.6962   26.8209 S   0  0  0  0  0  0  0  0  0  0  0  0
    5.3733   -4.9521   26.5851 C   0  0  0  0  0  0  0  0  0  0  0  0
    5.9157   -4.0738   25.6619 C   0  0  0  0  0  0  0  0  0  0  0  0
    4.9370   -3.1890   25.1439 C   0  0  0  0  0  0  0  0  0  0  0  0
    4.8049   -2.2113   23.9726 C   0  0  0  0  0  0  0  0  0  0  0  0
    5.0447   -0.7970   24.0865 N   0  0  0  0  0  0  0  0  0  0  0  0
    4.9160    0.0455   22.3798 C   0  0  0  0  0  0  0  0  0  0  0  0
    3.8750    0.5221   21.9118 O   0  0  0  0  0  0  0  0  0  0  0  0
    6.4902    0.4503   21.1338 C   0  0  0  0  0  0  0  0  0  0  0  0
    7.3745   -0.4578   19.4864 S   0  0  0  0  0  0  0  0  0  0  0  0
    8.4272    1.4384   21.4600 Cl  0  0  0  0  0  0  0  0  0  0  0  0
    2.4539   -0.4945   28.6212 N   0  0  0  0  0  0  0  0  0  0  0  0
    0.8104   -0.8939   28.7371 S   0  0  0  0  0  0  0  0  0  0  0  0
    0.3126   -1.2615   27.4289 O   0  0  0  0  0  0  0  0  0  0  0  0
    0.2227    0.2362   29.4366 O   0  0  0  0  0  0  0  0  0  0  0  0
    0.3739   -2.2673   29.7587 C   0  0  0  0  0  0  0  0  0  0  0  0
   -0.6093   -2.1694   30.7828 C   0  0  0  0  0  0  0  0  0  0  0  0
   -0.7378   -3.4353   31.2958 C   0  0  0  0  0  0  0  0  0  0  0  0
    0.1057   -4.2145   30.5649 N   0  0  0  0  0  0  0  0  0  0  0  0
    0.2815   -5.6356   30.7366 C   0  0  0  0  0  0  0  0  0  0  0  0
    0.8104   -3.5394   29.6256 N   0  0  0  0  0  0  0  0  0  0  0  0
    2.9568   -2.0224   31.4994 N   0  0  0  0  0  0  0  0  0  0  0  0
    0.9118   -2.8438   33.8585 H   0  0  0  0  0  0  0  0  0  0  0  0
    2.1452   -1.7535   34.5461 H   0  0  0  0  0  0  0  0  0  0  0  0
    1.1712   -1.2319   33.1617 H   0  0  0  0  0  0  0  0  0  0  0  0
    3.2265   -4.2608   34.0460 H   0  0  0  0  0  0  0  0  0  0  0  0
    5.7977   -5.1894   31.8356 H   0  0  0  0  0  0  0  0  0  0  0  0
    4.8028   -0.8234   29.8387 H   0  0  0  0  0  0  0  0  0  0  0  0
    5.2649   -2.3263   29.0664 H   0  0  0  0  0  0  0  0  0  0  0  0
    3.0004   -2.3939   27.9674 H   0  0  0  0  0  0  0  0  0  0  0  0
    4.5061    0.0844   27.1595 H   0  0  0  0  0  0  0  0  0  0  0  0
    3.2420   -0.0291   25.4035 H   0  0  0  0  0  0  0  0  0  0  0  0
    2.0198   -2.1943   26.2832 H   0  0  0  0  0  0  0  0  0  0  0  0
    2.1921   -2.4532   24.5950 H   0  0  0  0  0  0  0  0  0  0  0  0
    5.8787   -5.7550   27.1025 H   0  0  0  0  0  0  0  0  0  0  0  0
    6.9459   -4.1467   25.3487 H   0  0  0  0  0  0  0  0  0  0  0  0
    3.8123   -2.3915   23.6098 H   0  0  0  0  0  0  0  0  0  0  0  0
    5.3796   -2.5214   23.1386 H   0  0  0  0  0  0  0  0  0  0  0  0
    6.4469    1.4339   20.7206 H   0  0  0  0  0  0  0  0  0  0  0  0
    6.9323   -1.6764   19.8273 H   0  0  0  0  0  0  0  0  0  0  0  0
    2.7105    0.0949   29.4122 H   0  0  0  0  0  0  0  0  0  0  0  0
   -1.1396   -1.2799   31.0956 H   0  0  0  0  0  0  0  0  0  0  0  0
   -1.3381   -3.8266   32.1045 H   0  0  0  0  0  0  0  0  0  0  0  0
   -0.5316   -6.0340   31.3488 H   0  0  0  0  0  0  0  0  0  0  0  0
    1.2377   -5.7901   31.2397 H   0  0  0  0  0  0  0  0  0  0  0  0
    0.2621   -6.1045   29.7502 H   0  0  0  0  0  0  0  0  0  0  0  0
  1  2  1  0
  2  3  2  0
  3  4  1  0
  4  5  1  0
  4  6  2  0
  6  7  1  0
  7  8  1  0
  8  9  1  0
  9 10  1  0
 10 11  1  0
 11 12  1  0
 12 13  1  0
 13 14  1  0
 14 15  1  0
 15 16  2  0
 16 17  1  0
 17 18  1  0
 18 19  1  0
 19 20  1  0
 20 21  2  0
 20 22  1  0
 22 23  1  0
 22 24  1  0
  9 25  1  0
 25 26  1  0
 26 27  2  0
 26 28  2  0
 26 29  1  0
 29 30  1  0
 30 31  2  0
 31 32  1  0
 32 33  1  0
 32 34  1  0
  7 35  2  0
 35  2  1  0
 19 11  1  0
 34 29  2  0
 17 13  2  0
  1 36  1  0
  1 37  1  0
  1 38  1  0
  3 39  1  0
  5 40  1  0
  8 41  1  0
  8 42  1  0
  9 43  1  0
 10 44  1  0
 11 45  1  0
 12 46  1  0
 12 47  1  0
 15 48  1  0
 16 49  1  0
 18 50  1  0
 18 51  1  0
 22 52  1  0
 23 53  1  0
 25 54  1  0
 30 55  1  0
 31 56  1  0
 33 57  1  0
 33 58  1  0
 33 59  1  0
M  END
>  <Energy>  (529) 
378.98835944292455

>  <compound_id>  (529) 
2660

>  <target_id>  (529) 
1

>  <reference_id>  (529) 
177

>  <inspiration_ids>  (529) 
[177, 166]

>  <energy_score>  (529) 
318.84371619675983

>  <distance_score>  (529) 
7.4366418276317034

>  <path>  (529) 
/opt/xchem-fragalysis-2/maxwin/BulkDock/SCRATCH/505736/C2660-P177/C2660-P177.minimised.mol

>  <scratch_subdir>  (529) 
/opt/xchem-fragalysis-2/maxwin/BulkDock/SCRATCH/505736/C2660-P177

>  <fragmenstein_runtime>  (529) 
21.496492624282837

>  <fragmenstein_outcome>  (529) 
too moved

>  <fragmenstein_mode>  (529) 
expansion

>  <fragmenstein_error>  (529) 


$$$$
C2660-P166
     RDKit          3D

 59 62  0  0  0  0  0  0  0  0999 V2000
    0.4460   -5.5217   38.1146 C   0  0  0  0  0  0  0  0  0  0  0  0
    1.2009   -5.8835   36.8708 C   0  0  0  0  0  0  0  0  0  0  0  0
    1.5017   -7.1982   36.6092 C   0  0  0  0  0  0  0  0  0  0  0  0
    2.2001   -7.4127   35.4485 C   0  0  0  0  0  0  0  0  0  0  0  0
    2.6532   -8.6610   35.1368 O   0  0  0  0  0  0  0  0  0  0  0  0
    2.5434   -6.4739   34.5608 N   0  0  0  0  0  0  0  0  0  0  0  0
    2.2091   -5.2190   34.9003 C   0  0  0  0  0  0  0  0  0  0  0  0
    2.7075   -4.1098   34.0071 C   0  0  0  0  0  0  0  0  0  0  0  0
    2.2174   -4.2147   32.5411 C   0  0  0  0  0  0  0  0  0  0  0  0
    3.3250   -3.9154   31.5888 N   0  0  0  0  0  0  0  0  0  0  0  0
    2.9118   -3.7581   30.1684 C   0  0  0  0  0  0  0  0  0  0  0  0
    2.1828   -2.4071   29.7041 C   0  0  0  0  0  0  0  0  0  0  0  0
    3.0362   -1.7082   28.7267 C   0  0  0  0  0  0  0  0  0  0  0  0
    2.6547   -0.3392   27.8299 S   0  0  0  0  0  0  0  0  0  0  0  0
    4.1360   -0.4569   26.9621 C   0  0  0  0  0  0  0  0  0  0  0  0
    4.9240   -1.4930   27.4239 C   0  0  0  0  0  0  0  0  0  0  0  0
    4.2740   -2.2068   28.4655 C   0  0  0  0  0  0  0  0  0  0  0  0
    4.6892   -3.3870   29.2619 C   0  0  0  0  0  0  0  0  0  0  0  0
    3.7382   -4.5974   29.1624 N   0  0  0  0  0  0  0  0  0  0  0  0
    3.4876   -4.9161   27.7750 C   0  0  0  0  0  0  0  0  0  0  0  0
    2.6208   -4.5343   27.0284 O   0  0  0  0  0  0  0  0  0  0  0  0
    4.6005   -5.8157   27.1915 C   0  0  0  0  0  0  0  0  0  0  0  0
    5.4724   -4.9331   25.8472 S   0  0  0  0  0  0  0  0  0  0  0  0
    3.7824   -7.2606   26.5281 Cl  0  0  0  0  0  0  0  0  0  0  0  0
    1.1363   -3.2641   32.2771 N   0  0  0  0  0  0  0  0  0  0  0  0
   -0.4334   -3.7188   32.6781 S   0  0  0  0  0  0  0  0  0  0  0  0
   -0.5133   -3.7162   34.1170 O   0  0  0  0  0  0  0  0  0  0  0  0
   -1.3293   -2.9412   31.8502 O   0  0  0  0  0  0  0  0  0  0  0  0
   -0.6684   -5.3585   32.1427 C   0  0  0  0  0  0  0  0  0  0  0  0
   -0.3342   -5.8269   30.8476 C   0  0  0  0  0  0  0  0  0  0  0  0
   -0.6187   -7.1702   30.8726 C   0  0  0  0  0  0  0  0  0  0  0  0
   -1.1583   -7.3998   32.1000 N   0  0  0  0  0  0  0  0  0  0  0  0
   -1.8382   -8.5848   32.5286 C   0  0  0  0  0  0  0  0  0  0  0  0
   -1.1432   -6.3430   32.9145 N   0  0  0  0  0  0  0  0  0  0  0  0
    1.5878   -4.8836   36.0482 N   0  0  0  0  0  0  0  0  0  0  0  0
    0.2717   -4.4419   38.1619 H   0  0  0  0  0  0  0  0  0  0  0  0
   -0.5267   -6.0232   38.1269 H   0  0  0  0  0  0  0  0  0  0  0  0
    1.0145   -5.8156   39.0024 H   0  0  0  0  0  0  0  0  0  0  0  0
    1.2049   -7.9974   37.2753 H   0  0  0  0  0  0  0  0  0  0  0  0
    2.7174   -9.1179   35.9922 H   0  0  0  0  0  0  0  0  0  0  0  0
    2.4491   -3.1364   34.4422 H   0  0  0  0  0  0  0  0  0  0  0  0
    3.8035   -4.1743   34.0407 H   0  0  0  0  0  0  0  0  0  0  0  0
    1.9119   -5.2391   32.3158 H   0  0  0  0  0  0  0  0  0  0  0  0
    3.9688   -4.7029   31.6364 H   0  0  0  0  0  0  0  0  0  0  0  0
    2.0445   -4.4292   30.1300 H   0  0  0  0  0  0  0  0  0  0  0  0
    2.0000   -1.7443   30.5546 H   0  0  0  0  0  0  0  0  0  0  0  0
    1.2150   -2.6553   29.2506 H   0  0  0  0  0  0  0  0  0  0  0  0
    4.3523    0.2332   26.1567 H   0  0  0  0  0  0  0  0  0  0  0  0
    5.8979   -1.7238   27.0079 H   0  0  0  0  0  0  0  0  0  0  0  0
    5.0622   -3.1374   30.2660 H   0  0  0  0  0  0  0  0  0  0  0  0
    5.6078   -3.7588   28.7822 H   0  0  0  0  0  0  0  0  0  0  0  0
    5.3074   -6.1438   27.9577 H   0  0  0  0  0  0  0  0  0  0  0  0
    6.0748   -6.0104   25.3235 H   0  0  0  0  0  0  0  0  0  0  0  0
    1.3162   -2.3360   32.6627 H   0  0  0  0  0  0  0  0  0  0  0  0
    0.0386   -5.2553   30.0098 H   0  0  0  0  0  0  0  0  0  0  0  0
   -0.5323   -7.9459   30.1244 H   0  0  0  0  0  0  0  0  0  0  0  0
   -2.8939   -8.4482   32.3045 H   0  0  0  0  0  0  0  0  0  0  0  0
   -1.4504   -9.4261   31.9584 H   0  0  0  0  0  0  0  0  0  0  0  0
   -1.6836   -8.7045   33.5998 H   0  0  0  0  0  0  0  0  0  0  0  0
  1  2  1  0
  2  3  2  0
  3  4  1  0
  4  5  1  0
  4  6  2  0
  6  7  1  0
  7  8  1  0
  8  9  1  0
  9 10  1  0
 10 11  1  0
 11 12  1  0
 12 13  1  0
 13 14  1  0
 14 15  1  0
 15 16  2  0
 16 17  1  0
 17 18  1  0
 18 19  1  0
 19 20  1  0
 20 21  2  0
 20 22  1  0
 22 23  1  0
 22 24  1  0
  9 25  1  0
 25 26  1  0
 26 27  2  0
 26 28  2  0
 26 29  1  0
 29 30  1  0
 30 31  2  0
 31 32  1  0
 32 33  1  0
 32 34  1  0
  7 35  2  0
 35  2  1  0
 19 11  1  0
 34 29  2  0
 17 13  2  0
  1 36  1  0
  1 37  1  0
  1 38  1  0
  3 39  1  0
  5 40  1  0
  8 41  1  0
  8 42  1  0
  9 43  1  0
 10 44  1  0
 11 45  1  0
 12 46  1  0
 12 47  1  0
 15 48  1  0
 16 49  1  0
 18 50  1  0
 18 51  1  0
 22 52  1  0
 23 53  1  0
 25 54  1  0
 30 55  1  0
 31 56  1  0
 33 57  1  0
 33 58  1  0
 33 59  1  0
M  END
>  <Energy>  (530) 
51.970761745373409

>  <compound_id>  (530) 
2660

>  <target_id>  (530) 
1

>  <reference_id>  (530) 
166

>  <inspiration_ids>  (530) 
[177, 166]

>  <energy_score>  (530) 
-8.173881500780908

>  <distance_score>  (530) 
5.443186344320283

>  <path>  (530) 
/opt/xchem-fragalysis-2/maxwin/BulkDock/SCRATCH/505736/C2660-P166/C2660-P166.minimised.mol

>  <scratch_subdir>  (530) 
/opt/xchem-fragalysis-2/maxwin/BulkDock/SCRATCH/505736/C2660-P166

>  <fragmenstein_runtime>  (530) 
25.382357835769653

>  <fragmenstein_outcome>  (530) 
too moved

>  <fragmenstein_mode>  (530) 
expansion

>  <fragmenstein_error>  (530) 


$$$$
C2661-P177
     RDKit          3D

 57 60  0  0  0  0  0  0  0  0999 V2000
   -0.8709   -6.6794   33.2416 C   0  0  0  0  0  0  0  0  0  0  0  0
   -0.1989   -5.4837   32.6239 C   0  0  0  0  0  0  0  0  0  0  0  0
    0.9832   -5.0448   33.1683 C   0  0  0  0  0  0  0  0  0  0  0  0
    1.4983   -3.9295   32.5770 C   0  0  0  0  0  0  0  0  0  0  0  0
    2.7074   -3.4579   32.9749 O   0  0  0  0  0  0  0  0  0  0  0  0
    0.9353   -3.2360   31.5803 N   0  0  0  0  0  0  0  0  0  0  0  0
   -0.1755   -3.7591   31.0470 C   0  0  0  0  0  0  0  0  0  0  0  0
   -0.8815   -3.0011   29.9119 C   0  0  0  0  0  0  0  0  0  0  0  0
   -0.1267   -2.1670   28.4407 C   0  0  0  0  0  0  0  0  0  0  0  0
    0.3243   -0.6803   29.4392 N   0  0  0  0  0  0  0  0  0  0  0  0
    1.9895   -0.5309   29.3337 S   0  0  0  0  0  0  0  0  0  0  0  0
    2.3629    0.6492   28.6039 O   0  0  0  0  0  0  0  0  0  0  0  0
    2.6283   -1.0795   30.5020 O   0  0  0  0  0  0  0  0  0  0  0  0
    1.7298   -1.7754   28.2190 C   0  0  0  0  0  0  0  0  0  0  0  0
    0.4428   -1.2855   26.8421 C   0  0  0  0  0  0  0  0  0  0  0  0
   -0.6203   -2.6718   26.5735 C   0  0  0  0  0  0  0  0  0  0  0  0
   -0.1743   -3.9479   27.7803 N   0  0  0  0  0  0  0  0  0  0  0  0
   -0.5116   -5.3593   27.8276 C   0  0  0  0  0  0  0  0  0  0  0  0
    1.2275   -3.3428   28.7807 N   0  0  0  0  0  0  0  0  0  0  0  0
    1.3170   -2.9898   26.8518 C   0  0  0  0  0  0  0  0  0  0  0  0
    2.7903   -4.0543   27.5818 C   0  0  0  0  0  0  0  0  0  0  0  0
    3.9651   -3.3878   27.0925 C   0  0  0  0  0  0  0  0  0  0  0  0
    5.3386   -2.9063   27.8900 S   0  0  0  0  0  0  0  0  0  0  0  0
    5.8239   -2.0874   26.4673 C   0  0  0  0  0  0  0  0  0  0  0  0
    4.9011   -2.2058   25.4351 C   0  0  0  0  0  0  0  0  0  0  0  0
    3.8242   -3.0292   25.8091 C   0  0  0  0  0  0  0  0  0  0  0  0
    2.6211   -3.6389   25.1628 C   0  0  0  0  0  0  0  0  0  0  0  0
    1.5271   -2.8075   24.8830 N   0  0  0  0  0  0  0  0  0  0  0  0
    0.5882   -3.4638   23.5398 C   0  0  0  0  0  0  0  0  0  0  0  0
   -0.2989   -4.1879   23.8264 O   0  0  0  0  0  0  0  0  0  0  0  0
    0.8333   -3.4331   21.5144 C   0  0  0  0  0  0  0  0  0  0  0  0
    0.9185   -5.3888   21.3786 S   0  0  0  0  0  0  0  0  0  0  0  0
    0.6391   -3.4668   19.0231 Cl  0  0  0  0  0  0  0  0  0  0  0  0
   -0.7924   -4.8623   31.5608 N   0  0  0  0  0  0  0  0  0  0  0  0
   -0.1353   -7.4517   33.4829 H   0  0  0  0  0  0  0  0  0  0  0  0
   -1.5885   -7.1161   32.5414 H   0  0  0  0  0  0  0  0  0  0  0  0
   -1.3928   -6.3880   34.1570 H   0  0  0  0  0  0  0  0  0  0  0  0
    1.4786   -5.5301   33.9955 H   0  0  0  0  0  0  0  0  0  0  0  0
    2.8212   -2.7187   32.3390 H   0  0  0  0  0  0  0  0  0  0  0  0
   -1.4245   -2.1891   30.4193 H   0  0  0  0  0  0  0  0  0  0  0  0
   -1.6931   -3.6144   29.5228 H   0  0  0  0  0  0  0  0  0  0  0  0
   -1.1260   -1.6855   28.1383 H   0  0  0  0  0  0  0  0  0  0  0  0
    0.1459   -0.9463   30.4126 H   0  0  0  0  0  0  0  0  0  0  0  0
    0.1171   -0.2508   26.8435 H   0  0  0  0  0  0  0  0  0  0  0  0
   -1.5574   -2.8631   26.0659 H   0  0  0  0  0  0  0  0  0  0  0  0
   -0.8305   -5.6108   28.8301 H   0  0  0  0  0  0  0  0  0  0  0  0
    0.4081   -5.9123   27.6504 H   0  0  0  0  0  0  0  0  0  0  0  0
   -1.2568   -5.5925   27.0747 H   0  0  0  0  0  0  0  0  0  0  0  0
    0.9736   -3.9766   26.4684 H   0  0  0  0  0  0  0  0  0  0  0  0
    2.6664   -5.0863   27.2215 H   0  0  0  0  0  0  0  0  0  0  0  0
    2.9372   -4.2016   28.6661 H   0  0  0  0  0  0  0  0  0  0  0  0
    6.7671   -1.5662   26.4865 H   0  0  0  0  0  0  0  0  0  0  0  0
    5.0124   -1.7492   24.4612 H   0  0  0  0  0  0  0  0  0  0  0  0
    2.4288   -4.6758   25.3906 H   0  0  0  0  0  0  0  0  0  0  0  0
    3.0248   -3.5908   24.1532 H   0  0  0  0  0  0  0  0  0  0  0  0
    1.8268   -3.4237   21.8669 H   0  0  0  0  0  0  0  0  0  0  0  0
    1.7291   -5.5710   20.3378 H   0  0  0  0  0  0  0  0  0  0  0  0
  1  2  1  0
  2  3  2  0
  3  4  1  0
  4  5  1  0
  4  6  2  0
  6  7  1  0
  7  8  1  0
  8  9  1  0
  9 10  1  0
 10 11  1  0
 11 12  2  0
 11 13  2  0
 11 14  1  0
 14 15  1  0
 15 16  2  0
 16 17  1  0
 17 18  1  0
 17 19  1  0
  9 20  1  0
 20 21  1  0
 21 22  1  0
 22 23  1  0
 23 24  1  0
 24 25  2  0
 25 26  1  0
 26 27  1  0
 27 28  1  0
 28 29  1  0
 29 30  2  0
 29 31  1  0
 31 32  1  0
 31 33  1  0
  7 34  2  0
 34  2  1  0
 19 14  2  0
 28 20  1  0
 26 22  2  0
  1 35  1  0
  1 36  1  0
  1 37  1  0
  3 38  1  0
  5 39  1  0
  8 40  1  0
  8 41  1  0
  9 42  1  0
 10 43  1  0
 15 44  1  0
 16 45  1  0
 18 46  1  0
 18 47  1  0
 18 48  1  0
 20 49  1  0
 21 50  1  0
 21 51  1  0
 24 52  1  0
 25 53  1  0
 27 54  1  0
 27 55  1  0
 31 56  1  0
 32 57  1  0
M  END
>  <Energy>  (531) 
1811.3598338903694

>  <compound_id>  (531) 
2661

>  <target_id>  (531) 
1

>  <reference_id>  (531) 
177

>  <inspiration_ids>  (531) 
[177, 167]

>  <energy_score>  (531) 
1630.1746497287104

>  <distance_score>  (531) 
6.409881849479867

>  <path>  (531) 
/opt/xchem-fragalysis-2/maxwin/BulkDock/SCRATCH/505736/C2661-P177/C2661-P177.minimised.mol

>  <scratch_subdir>  (531) 
/opt/xchem-fragalysis-2/maxwin/BulkDock/SCRATCH/505736/C2661-P177

>  <fragmenstein_runtime>  (531) 
23.942999124526978

>  <fragmenstein_outcome>  (531) 
too moved

>  <fragmenstein_mode>  (531) 
expansion

>  <fragmenstein_error>  (531) 


$$$$
C2661-P167
     RDKit          3D

 57 60  0  0  0  0  0  0  0  0999 V2000
    0.0269   -2.8877   31.7023 C   0  0  0  0  0  0  0  0  0  0  0  0
    1.1008   -2.8486   30.6458 C   0  0  0  0  0  0  0  0  0  0  0  0
    2.3691   -2.4485   30.9780 C   0  0  0  0  0  0  0  0  0  0  0  0
    3.3121   -2.6354   29.9939 C   0  0  0  0  0  0  0  0  0  0  0  0
    4.6348   -2.5056   30.3216 O   0  0  0  0  0  0  0  0  0  0  0  0
    3.0832   -3.1564   28.7691 N   0  0  0  0  0  0  0  0  0  0  0  0
    1.8340   -3.5226   28.5008 C   0  0  0  0  0  0  0  0  0  0  0  0
    1.5015   -4.5802   27.4185 C   0  0  0  0  0  0  0  0  0  0  0  0
    1.9903   -5.3788   25.6756 C   0  0  0  0  0  0  0  0  0  0  0  0
    2.9532   -6.5606   25.9935 N   0  0  0  0  0  0  0  0  0  0  0  0
    3.9073   -6.4728   27.4293 S   0  0  0  0  0  0  0  0  0  0  0  0
    4.5583   -5.1967   27.4971 O   0  0  0  0  0  0  0  0  0  0  0  0
    4.6903   -7.6776   27.4594 O   0  0  0  0  0  0  0  0  0  0  0  0
    2.8704   -6.5474   28.8722 C   0  0  0  0  0  0  0  0  0  0  0  0
    3.0703   -5.7620   30.0313 C   0  0  0  0  0  0  0  0  0  0  0  0
    1.9306   -5.9021   30.7984 C   0  0  0  0  0  0  0  0  0  0  0  0
    1.0900   -6.7160   30.0893 N   0  0  0  0  0  0  0  0  0  0  0  0
   -0.1631   -7.2372   30.5895 C   0  0  0  0  0  0  0  0  0  0  0  0
    1.6822   -7.2239   28.9491 N   0  0  0  0  0  0  0  0  0  0  0  0
    1.3650   -4.4206   23.8990 C   0  0  0  0  0  0  0  0  0  0  0  0
    2.9450   -4.1465   25.1089 C   0  0  0  0  0  0  0  0  0  0  0  0
    3.7792   -3.1223   24.8341 C   0  0  0  0  0  0  0  0  0  0  0  0
    4.9053   -2.5900   25.9786 S   0  0  0  0  0  0  0  0  0  0  0  0
    4.7558   -1.2154   25.0723 C   0  0  0  0  0  0  0  0  0  0  0  0
    4.4745   -1.7192   23.7955 C   0  0  0  0  0  0  0  0  0  0  0  0
    3.3360   -2.5505   23.7077 C   0  0  0  0  0  0  0  0  0  0  0  0
    1.8969   -2.8936   22.5067 C   0  0  0  0  0  0  0  0  0  0  0  0
    0.8306   -3.7675   22.1051 N   0  0  0  0  0  0  0  0  0  0  0  0
    0.9387   -4.4885   20.2713 C   0  0  0  0  0  0  0  0  0  0  0  0
    1.5977   -5.5904   20.2995 O   0  0  0  0  0  0  0  0  0  0  0  0
    0.0591   -4.1621   18.1294 C   0  0  0  0  0  0  0  0  0  0  0  0
   -0.4147   -5.1152   15.3671 S   0  0  0  0  0  0  0  0  0  0  0  0
    1.1145   -1.9444   18.0524 Cl  0  0  0  0  0  0  0  0  0  0  0  0
    0.8223   -3.3665   29.4232 N   0  0  0  0  0  0  0  0  0  0  0  0
    0.2950   -3.5910   32.4961 H   0  0  0  0  0  0  0  0  0  0  0  0
   -0.9259   -3.2066   31.2672 H   0  0  0  0  0  0  0  0  0  0  0  0
   -0.1120   -1.8920   32.1348 H   0  0  0  0  0  0  0  0  0  0  0  0
    2.6211   -2.0994   31.9682 H   0  0  0  0  0  0  0  0  0  0  0  0
    4.7081   -1.8414   31.0216 H   0  0  0  0  0  0  0  0  0  0  0  0
    0.4285   -4.3353   27.3668 H   0  0  0  0  0  0  0  0  0  0  0  0
    1.3669   -5.4376   27.9952 H   0  0  0  0  0  0  0  0  0  0  0  0
    1.0831   -5.7841   25.6489 H   0  0  0  0  0  0  0  0  0  0  0  0
    3.5566   -6.8827   25.2257 H   0  0  0  0  0  0  0  0  0  0  0  0
    3.9432   -5.1595   30.2472 H   0  0  0  0  0  0  0  0  0  0  0  0
    1.6592   -5.5073   31.7665 H   0  0  0  0  0  0  0  0  0  0  0  0
   -0.7060   -7.7245   29.7798 H   0  0  0  0  0  0  0  0  0  0  0  0
    0.0494   -7.9531   31.3839 H   0  0  0  0  0  0  0  0  0  0  0  0
   -0.7407   -6.4025   30.9915 H   0  0  0  0  0  0  0  0  0  0  0  0
    0.7314   -5.3057   23.7603 H   0  0  0  0  0  0  0  0  0  0  0  0
    3.7777   -4.8905   25.1390 H   0  0  0  0  0  0  0  0  0  0  0  0
    2.7682   -3.7618   26.1306 H   0  0  0  0  0  0  0  0  0  0  0  0
    5.1625   -0.2879   25.3888 H   0  0  0  0  0  0  0  0  0  0  0  0
    4.7298   -1.1880   22.9121 H   0  0  0  0  0  0  0  0  0  0  0  0
    1.2126   -2.4159   23.1571 H   0  0  0  0  0  0  0  0  0  0  0  0
    2.5416   -3.7250   22.3967 H   0  0  0  0  0  0  0  0  0  0  0  0
   -0.6031   -3.2342   18.2641 H   0  0  0  0  0  0  0  0  0  0  0  0
   -1.4323   -4.3455   14.8510 H   0  0  0  0  0  0  0  0  0  0  0  0
  1  2  1  0
  2  3  2  0
  3  4  1  0
  4  5  1  0
  4  6  2  0
  6  7  1  0
  7  8  1  0
  8  9  1  0
  9 10  1  0
 10 11  1  0
 11 12  2  0
 11 13  2  0
 11 14  1  0
 14 15  1  0
 15 16  2  0
 16 17  1  0
 17 18  1  0
 17 19  1  0
  9 20  1  0
 20 21  1  0
 21 22  1  0
 22 23  1  0
 23 24  1  0
 24 25  2  0
 25 26  1  0
 26 27  1  0
 27 28  1  0
 28 29  1  0
 29 30  2  0
 29 31  1  0
 31 32  1  0
 31 33  1  0
  7 34  2  0
 34  2  1  0
 19 14  2  0
 28 20  1  0
 26 22  2  0
  1 35  1  0
  1 36  1  0
  1 37  1  0
  3 38  1  0
  5 39  1  0
  8 40  1  0
  8 41  1  0
  9 42  1  0
 10 43  1  0
 15 44  1  0
 16 45  1  0
 18 46  1  0
 18 47  1  0
 18 48  1  0
 20 49  1  0
 21 50  1  0
 21 51  1  0
 24 52  1  0
 25 53  1  0
 27 54  1  0
 27 55  1  0
 31 56  1  0
 32 57  1  0
M  END
>  <Energy>  (532) 
1968.2070233758707

>  <compound_id>  (532) 
2661

>  <target_id>  (532) 
1

>  <reference_id>  (532) 
167

>  <inspiration_ids>  (532) 
[177, 167]

>  <energy_score>  (532) 
1787.0218392142178

>  <distance_score>  (532) 
7.037445603926184

>  <path>  (532) 
/opt/xchem-fragalysis-2/maxwin/BulkDock/SCRATCH/505736/C2661-P167/C2661-P167.minimised.mol

>  <scratch_subdir>  (532) 
/opt/xchem-fragalysis-2/maxwin/BulkDock/SCRATCH/505736/C2661-P167

>  <fragmenstein_runtime>  (532) 
30.940465211868286

>  <fragmenstein_outcome>  (532) 
too moved

>  <fragmenstein_mode>  (532) 
expansion

>  <fragmenstein_error>  (532) 


$$$$
C191-P177
     RDKit          3D

 55 58  0  0  0  0  0  0  0  0999 V2000
   -4.3036   -0.7031   30.6123 C   0  0  0  0  0  0  0  0  0  0  0  0
   -2.8482   -0.5245   30.3067 C   0  0  0  0  0  0  0  0  0  0  0  0
   -2.0453    0.2184   31.1413 C   0  0  0  0  0  0  0  0  0  0  0  0
   -0.7288    0.2794   30.7744 C   0  0  0  0  0  0  0  0  0  0  0  0
    0.1522    0.9912   31.5223 O   0  0  0  0  0  0  0  0  0  0  0  0
   -0.1883   -0.3107   29.7052 N   0  0  0  0  0  0  0  0  0  0  0  0
   -1.0561   -0.9914   28.9343 C   0  0  0  0  0  0  0  0  0  0  0  0
   -0.5375   -1.5598   27.6476 C   0  0  0  0  0  0  0  0  0  0  0  0
   -0.2380   -3.0730   27.6777 C   0  0  0  0  0  0  0  0  0  0  0  0
   -0.0340   -3.5289   26.2167 N   0  0  0  0  0  0  0  0  0  0  0  0
    1.3250   -3.3537   25.6293 C   0  0  0  0  0  0  0  0  0  0  0  0
    2.2556   -4.4899   26.3112 C   0  0  0  0  0  0  0  0  0  0  0  0
    3.5604   -3.9054   26.4036 C   0  0  0  0  0  0  0  0  0  0  0  0
    4.7581   -4.1579   27.5449 S   0  0  0  0  0  0  0  0  0  0  0  0
    5.7601   -3.0189   26.7443 C   0  0  0  0  0  0  0  0  0  0  0  0
    5.1193   -2.4852   25.6455 C   0  0  0  0  0  0  0  0  0  0  0  0
    3.8389   -3.0421   25.4110 C   0  0  0  0  0  0  0  0  0  0  0  0
    2.8646   -2.6400   24.3096 C   0  0  0  0  0  0  0  0  0  0  0  0
    1.3672   -2.9278   23.9270 N   0  0  0  0  0  0  0  0  0  0  0  0
    1.2586   -3.8997   22.4708 C   0  0  0  0  0  0  0  0  0  0  0  0
    1.2342   -5.0773   22.5919 O   0  0  0  0  0  0  0  0  0  0  0  0
    0.9964   -3.4783   20.6845 C   0  0  0  0  0  0  0  0  0  0  0  0
    0.9538   -2.2674   18.4924 S   0  0  0  0  0  0  0  0  0  0  0  0
    1.4948   -1.4319   19.4110 Cl  0  0  0  0  0  0  0  0  0  0  0  0
    0.8495   -3.3704   28.6542 N   0  0  0  0  0  0  0  0  0  0  0  0
    0.6841   -4.2655   30.0962 S   0  0  0  0  0  0  0  0  0  0  0  0
    2.0384   -4.5529   30.5364 O   0  0  0  0  0  0  0  0  0  0  0  0
   -0.2579   -5.3485   29.9316 O   0  0  0  0  0  0  0  0  0  0  0  0
    0.0620   -3.3637   31.4846 C   0  0  0  0  0  0  0  0  0  0  0  0
    0.9042   -2.7804   32.4203 C   0  0  0  0  0  0  0  0  0  0  0  0
    0.0047   -2.1977   33.7575 S   0  0  0  0  0  0  0  0  0  0  0  0
   -1.4319   -2.7312   32.9904 C   0  0  0  0  0  0  0  0  0  0  0  0
   -1.2980   -3.3322   31.8255 N   0  0  0  0  0  0  0  0  0  0  0  0
   -2.3720   -1.1163   29.1907 N   0  0  0  0  0  0  0  0  0  0  0  0
   -4.8132    0.2652   30.6091 H   0  0  0  0  0  0  0  0  0  0  0  0
   -4.4292   -1.1734   31.5927 H   0  0  0  0  0  0  0  0  0  0  0  0
   -4.7822   -1.3447   29.8653 H   0  0  0  0  0  0  0  0  0  0  0  0
   -2.4116    0.7119   32.0295 H   0  0  0  0  0  0  0  0  0  0  0  0
    0.9661    0.8836   30.9983 H   0  0  0  0  0  0  0  0  0  0  0  0
    0.3641   -1.0014   27.3677 H   0  0  0  0  0  0  0  0  0  0  0  0
   -1.2896   -1.3440   26.8775 H   0  0  0  0  0  0  0  0  0  0  0  0
   -1.1122   -3.6079   28.0387 H   0  0  0  0  0  0  0  0  0  0  0  0
   -0.7188   -3.0654   25.6216 H   0  0  0  0  0  0  0  0  0  0  0  0
    1.5671   -2.3813   26.0873 H   0  0  0  0  0  0  0  0  0  0  0  0
    2.4400   -5.3788   25.7301 H   0  0  0  0  0  0  0  0  0  0  0  0
    1.8955   -4.8465   27.2749 H   0  0  0  0  0  0  0  0  0  0  0  0
    6.7502   -2.7927   27.1152 H   0  0  0  0  0  0  0  0  0  0  0  0
    5.5219   -1.7283   25.0024 H   0  0  0  0  0  0  0  0  0  0  0  0
    2.7683   -1.6308   24.6885 H   0  0  0  0  0  0  0  0  0  0  0  0
    3.4653   -2.8045   23.4790 H   0  0  0  0  0  0  0  0  0  0  0  0
    0.3823   -2.9310   21.5455 H   0  0  0  0  0  0  0  0  0  0  0  0
   -0.3644   -2.0717   18.4956 H   0  0  0  0  0  0  0  0  0  0  0  0
    1.6555   -2.7475   28.6614 H   0  0  0  0  0  0  0  0  0  0  0  0
    1.9837   -2.7168   32.4022 H   0  0  0  0  0  0  0  0  0  0  0  0
   -2.3956   -2.5696   33.4537 H   0  0  0  0  0  0  0  0  0  0  0  0
  1  2  1  0
  2  3  2  0
  3  4  1  0
  4  5  1  0
  4  6  2  0
  6  7  1  0
  7  8  1  0
  8  9  1  0
  9 10  1  0
 10 11  1  0
 11 12  1  0
 12 13  1  0
 13 14  1  0
 14 15  1  0
 15 16  2  0
 16 17  1  0
 17 18  1  0
 18 19  1  0
 19 20  1  0
 20 21  2  0
 20 22  1  0
 22 23  1  0
 22 24  1  0
  9 25  1  0
 25 26  1  0
 26 27  2  0
 26 28  2  0
 26 29  1  0
 29 30  2  0
 30 31  1  0
 31 32  1  0
 32 33  2  0
  7 34  2  0
 34  2  1  0
 19 11  1  0
 33 29  1  0
 17 13  2  0
  1 35  1  0
  1 36  1  0
  1 37  1  0
  3 38  1  0
  5 39  1  0
  8 40  1  0
  8 41  1  0
  9 42  1  0
 10 43  1  0
 11 44  1  0
 12 45  1  0
 12 46  1  0
 15 47  1  0
 16 48  1  0
 18 49  1  0
 18 50  1  0
 22 51  1  0
 23 52  1  0
 25 53  1  0
 30 54  1  0
 32 55  1  0
M  END
>  <Energy>  (533) 
598.99114301673012

>  <compound_id>  (533) 
191

>  <target_id>  (533) 
1

>  <reference_id>  (533) 
177

>  <inspiration_ids>  (533) 
[177, 168]

>  <energy_score>  (533) 
481.6843913953345

>  <distance_score>  (533) 
6.0407277414944405

>  <path>  (533) 
/opt/xchem-fragalysis-2/maxwin/BulkDock/SCRATCH/505736/C191-P177/C191-P177.minimised.mol

>  <scratch_subdir>  (533) 
/opt/xchem-fragalysis-2/maxwin/BulkDock/SCRATCH/505736/C191-P177

>  <fragmenstein_runtime>  (533) 
34.29944562911987

>  <fragmenstein_outcome>  (533) 
too moved

>  <fragmenstein_mode>  (533) 
expansion

>  <fragmenstein_error>  (533) 


$$$$
C191-P168
     RDKit          3D

 55 58  0  0  0  0  0  0  0  0999 V2000
   -3.0631   -1.8632   32.8161 C   0  0  0  0  0  0  0  0  0  0  0  0
   -1.7733   -1.7739   32.0569 C   0  0  0  0  0  0  0  0  0  0  0  0
   -1.0107   -0.6316   32.1489 C   0  0  0  0  0  0  0  0  0  0  0  0
    0.1679   -0.6666   31.4623 C   0  0  0  0  0  0  0  0  0  0  0  0
    0.9890    0.4136   31.4614 O   0  0  0  0  0  0  0  0  0  0  0  0
    0.6300   -1.7083   30.7673 N   0  0  0  0  0  0  0  0  0  0  0  0
   -0.1863   -2.7798   30.7130 C   0  0  0  0  0  0  0  0  0  0  0  0
    0.2973   -4.0217   29.9988 C   0  0  0  0  0  0  0  0  0  0  0  0
    1.8379   -4.1302   29.7781 C   0  0  0  0  0  0  0  0  0  0  0  0
    2.1863   -3.3255   28.5740 N   0  0  0  0  0  0  0  0  0  0  0  0
    3.6038   -3.1893   28.1158 C   0  0  0  0  0  0  0  0  0  0  0  0
    4.0185   -1.8424   28.7789 C   0  0  0  0  0  0  0  0  0  0  0  0
    5.3988   -1.6309   28.3555 C   0  0  0  0  0  0  0  0  0  0  0  0
    6.5226   -0.6320   29.1057 S   0  0  0  0  0  0  0  0  0  0  0  0
    7.7597   -1.2275   28.0841 C   0  0  0  0  0  0  0  0  0  0  0  0
    7.2792   -2.1591   27.1854 C   0  0  0  0  0  0  0  0  0  0  0  0
    5.8773   -2.3589   27.3062 C   0  0  0  0  0  0  0  0  0  0  0  0
    4.9902   -3.3272   26.5838 C   0  0  0  0  0  0  0  0  0  0  0  0
    3.4638   -3.0799   26.5161 N   0  0  0  0  0  0  0  0  0  0  0  0
    2.8601   -3.9788   25.5569 C   0  0  0  0  0  0  0  0  0  0  0  0
    2.3964   -5.0772   25.7246 O   0  0  0  0  0  0  0  0  0  0  0  0
    2.6488   -3.2503   23.7798 C   0  0  0  0  0  0  0  0  0  0  0  0
    0.7380   -2.8422   22.7714 S   0  0  0  0  0  0  0  0  0  0  0  0
    1.2530   -4.4233   22.4968 Cl  0  0  0  0  0  0  0  0  0  0  0  0
    2.5894   -3.7748   31.0057 N   0  0  0  0  0  0  0  0  0  0  0  0
    2.3919   -4.7431   32.4147 S   0  0  0  0  0  0  0  0  0  0  0  0
    3.6726   -4.7678   33.0899 O   0  0  0  0  0  0  0  0  0  0  0  0
    1.7140   -5.9705   32.0568 O   0  0  0  0  0  0  0  0  0  0  0  0
    1.3591   -3.9777   33.6126 C   0  0  0  0  0  0  0  0  0  0  0  0
    1.7379   -2.8441   34.3090 C   0  0  0  0  0  0  0  0  0  0  0  0
    0.5593   -2.4637   35.4972 S   0  0  0  0  0  0  0  0  0  0  0  0
   -0.3541   -3.8281   35.0022 C   0  0  0  0  0  0  0  0  0  0  0  0
    0.1466   -4.5384   34.0149 N   0  0  0  0  0  0  0  0  0  0  0  0
   -1.3819   -2.8545   31.3384 N   0  0  0  0  0  0  0  0  0  0  0  0
   -3.6339   -0.9341   32.7189 H   0  0  0  0  0  0  0  0  0  0  0  0
   -2.8611   -2.0406   33.8761 H   0  0  0  0  0  0  0  0  0  0  0  0
   -3.6845   -2.6762   32.4317 H   0  0  0  0  0  0  0  0  0  0  0  0
   -1.3142    0.2365   32.7162 H   0  0  0  0  0  0  0  0  0  0  0  0
    1.6400    0.1602   30.7834 H   0  0  0  0  0  0  0  0  0  0  0  0
   -0.2309   -4.0922   29.0390 H   0  0  0  0  0  0  0  0  0  0  0  0
   -0.0394   -4.8878   30.5806 H   0  0  0  0  0  0  0  0  0  0  0  0
    2.0773   -5.1699   29.5220 H   0  0  0  0  0  0  0  0  0  0  0  0
    1.6668   -3.7139   27.7953 H   0  0  0  0  0  0  0  0  0  0  0  0
    4.1096   -4.1055   28.4586 H   0  0  0  0  0  0  0  0  0  0  0  0
    3.9566   -1.8866   29.8700 H   0  0  0  0  0  0  0  0  0  0  0  0
    3.3848   -1.0169   28.4298 H   0  0  0  0  0  0  0  0  0  0  0  0
    8.7778   -0.8808   28.1979 H   0  0  0  0  0  0  0  0  0  0  0  0
    7.9266   -2.6664   26.4871 H   0  0  0  0  0  0  0  0  0  0  0  0
    5.2127   -4.3791   26.8276 H   0  0  0  0  0  0  0  0  0  0  0  0
    5.2903   -3.2596   25.5314 H   0  0  0  0  0  0  0  0  0  0  0  0
    3.2245   -2.4054   23.4670 H   0  0  0  0  0  0  0  0  0  0  0  0
    1.0009   -3.1924   21.4973 H   0  0  0  0  0  0  0  0  0  0  0  0
    2.4183   -2.7892   31.2311 H   0  0  0  0  0  0  0  0  0  0  0  0
    2.6418   -2.2599   34.2051 H   0  0  0  0  0  0  0  0  0  0  0  0
   -1.2872   -4.0824   35.4864 H   0  0  0  0  0  0  0  0  0  0  0  0
  1  2  1  0
  2  3  2  0
  3  4  1  0
  4  5  1  0
  4  6  2  0
  6  7  1  0
  7  8  1  0
  8  9  1  0
  9 10  1  0
 10 11  1  0
 11 12  1  0
 12 13  1  0
 13 14  1  0
 14 15  1  0
 15 16  2  0
 16 17  1  0
 17 18  1  0
 18 19  1  0
 19 20  1  0
 20 21  2  0
 20 22  1  0
 22 23  1  0
 22 24  1  0
  9 25  1  0
 25 26  1  0
 26 27  2  0
 26 28  2  0
 26 29  1  0
 29 30  2  0
 30 31  1  0
 31 32  1  0
 32 33  2  0
  7 34  2  0
 34  2  1  0
 19 11  1  0
 33 29  1  0
 17 13  2  0
  1 35  1  0
  1 36  1  0
  1 37  1  0
  3 38  1  0
  5 39  1  0
  8 40  1  0
  8 41  1  0
  9 42  1  0
 10 43  1  0
 11 44  1  0
 12 45  1  0
 12 46  1  0
 15 47  1  0
 16 48  1  0
 18 49  1  0
 18 50  1  0
 22 51  1  0
 23 52  1  0
 25 53  1  0
 30 54  1  0
 32 55  1  0
M  END
>  <Energy>  (534) 
211.67087426152443

>  <compound_id>  (534) 
191

>  <target_id>  (534) 
1

>  <reference_id>  (534) 
168

>  <inspiration_ids>  (534) 
[177, 168]

>  <energy_score>  (534) 
94.36412264015428

>  <distance_score>  (534) 
5.903163796722764

>  <path>  (534) 
/opt/xchem-fragalysis-2/maxwin/BulkDock/SCRATCH/505736/C191-P168/C191-P168.minimised.mol

>  <scratch_subdir>  (534) 
/opt/xchem-fragalysis-2/maxwin/BulkDock/SCRATCH/505736/C191-P168

>  <fragmenstein_runtime>  (534) 
26.014251947402954

>  <fragmenstein_outcome>  (534) 
too moved

>  <fragmenstein_mode>  (534) 
expansion

>  <fragmenstein_error>  (534) 


$$$$
C191-P177
     RDKit          3D

 55 58  0  0  0  0  0  0  0  0999 V2000
    6.5143  -10.6828   25.5591 C   0  0  0  0  0  0  0  0  0  0  0  0
    6.7520   -9.2304   25.8192 C   0  0  0  0  0  0  0  0  0  0  0  0
    8.0219   -8.7191   25.7250 C   0  0  0  0  0  0  0  0  0  0  0  0
    8.1039   -7.3664   25.8604 C   0  0  0  0  0  0  0  0  0  0  0  0
    9.3096   -6.7531   25.7546 O   0  0  0  0  0  0  0  0  0  0  0  0
    7.0783   -6.5453   26.0709 N   0  0  0  0  0  0  0  0  0  0  0  0
    5.8879   -7.1464   26.2520 C   0  0  0  0  0  0  0  0  0  0  0  0
    4.7220   -6.3288   26.7385 C   0  0  0  0  0  0  0  0  0  0  0  0
    4.8527   -4.7760   26.8432 C   0  0  0  0  0  0  0  0  0  0  0  0
    4.3108   -3.9943   25.6800 N   0  0  0  0  0  0  0  0  0  0  0  0
    2.8193   -4.1047   25.4027 C   0  0  0  0  0  0  0  0  0  0  0  0
    1.9440   -3.9706   26.8279 C   0  0  0  0  0  0  0  0  0  0  0  0
    2.1333   -2.5674   27.0943 C   0  0  0  0  0  0  0  0  0  0  0  0
    2.7471   -1.8557   28.4753 S   0  0  0  0  0  0  0  0  0  0  0  0
    3.4409   -0.6310   27.5042 C   0  0  0  0  0  0  0  0  0  0  0  0
    3.1314   -0.8129   26.1666 C   0  0  0  0  0  0  0  0  0  0  0  0
    2.1772   -1.8645   25.9267 C   0  0  0  0  0  0  0  0  0  0  0  0
    1.4836   -2.5703   24.6727 C   0  0  0  0  0  0  0  0  0  0  0  0
    2.3148   -3.3351   23.7762 N   0  0  0  0  0  0  0  0  0  0  0  0
    1.3629   -3.9602   22.3932 C   0  0  0  0  0  0  0  0  0  0  0  0
    0.8966   -5.0272   22.5780 O   0  0  0  0  0  0  0  0  0  0  0  0
    1.0142   -3.4618   20.6513 C   0  0  0  0  0  0  0  0  0  0  0  0
    1.0593   -2.2770   18.4478 S   0  0  0  0  0  0  0  0  0  0  0  0
    1.3278   -1.3409   19.5366 Cl  0  0  0  0  0  0  0  0  0  0  0  0
    6.2465   -4.3566   27.0883 N   0  0  0  0  0  0  0  0  0  0  0  0
    6.8602   -4.6216   28.6522 S   0  0  0  0  0  0  0  0  0  0  0  0
    6.5148   -5.9562   29.0850 O   0  0  0  0  0  0  0  0  0  0  0  0
    6.5390   -3.4647   29.4601 O   0  0  0  0  0  0  0  0  0  0  0  0
    8.6066   -4.6049   28.5446 C   0  0  0  0  0  0  0  0  0  0  0  0
    9.2790   -3.7157   27.7260 C   0  0  0  0  0  0  0  0  0  0  0  0
   10.9675   -3.9864   27.8364 S   0  0  0  0  0  0  0  0  0  0  0  0
   10.6746   -5.2476   28.9629 C   0  0  0  0  0  0  0  0  0  0  0  0
    9.4182   -5.4779   29.2705 N   0  0  0  0  0  0  0  0  0  0  0  0
    5.6897   -8.4705   26.1538 N   0  0  0  0  0  0  0  0  0  0  0  0
    5.4599  -10.8712   25.3369 H   0  0  0  0  0  0  0  0  0  0  0  0
    7.0991  -11.0284   24.7005 H   0  0  0  0  0  0  0  0  0  0  0  0
    6.8048  -11.2738   26.4324 H   0  0  0  0  0  0  0  0  0  0  0  0
    8.8871   -9.3285   25.5171 H   0  0  0  0  0  0  0  0  0  0  0  0
    9.0646   -5.8491   25.4547 H   0  0  0  0  0  0  0  0  0  0  0  0
    3.8551   -6.6077   26.1356 H   0  0  0  0  0  0  0  0  0  0  0  0
    4.4840   -6.6991   27.7409 H   0  0  0  0  0  0  0  0  0  0  0  0
    4.3043   -4.4485   27.7283 H   0  0  0  0  0  0  0  0  0  0  0  0
    4.8216   -4.3359   24.8866 H   0  0  0  0  0  0  0  0  0  0  0  0
    2.6593   -5.1687   25.3443 H   0  0  0  0  0  0  0  0  0  0  0  0
    2.3281   -4.6409   27.5999 H   0  0  0  0  0  0  0  0  0  0  0  0
    0.8814   -4.1851   26.7577 H   0  0  0  0  0  0  0  0  0  0  0  0
    4.0796    0.1247   27.9389 H   0  0  0  0  0  0  0  0  0  0  0  0
    3.5578   -0.1726   25.4139 H   0  0  0  0  0  0  0  0  0  0  0  0
    0.9395   -1.9576   24.0021 H   0  0  0  0  0  0  0  0  0  0  0  0
    0.6274   -3.1737   25.0012 H   0  0  0  0  0  0  0  0  0  0  0  0
    0.4481   -4.2795   20.1947 H   0  0  0  0  0  0  0  0  0  0  0  0
   -0.2522   -2.0334   18.4490 H   0  0  0  0  0  0  0  0  0  0  0  0
    6.8586   -4.8285   26.4087 H   0  0  0  0  0  0  0  0  0  0  0  0
    8.8644   -2.9510   27.0830 H   0  0  0  0  0  0  0  0  0  0  0  0
   11.4883   -5.8157   29.3946 H   0  0  0  0  0  0  0  0  0  0  0  0
  1  2  1  0
  2  3  2  0
  3  4  1  0
  4  5  1  0
  4  6  2  0
  6  7  1  0
  7  8  1  0
  8  9  1  0
  9 10  1  0
 10 11  1  0
 11 12  1  0
 12 13  1  0
 13 14  1  0
 14 15  1  0
 15 16  2  0
 16 17  1  0
 17 18  1  0
 18 19  1  0
 19 20  1  0
 20 21  2  0
 20 22  1  0
 22 23  1  0
 22 24  1  0
  9 25  1  0
 25 26  1  0
 26 27  2  0
 26 28  2  0
 26 29  1  0
 29 30  2  0
 30 31  1  0
 31 32  1  0
 32 33  2  0
  7 34  2  0
 34  2  1  0
 19 11  1  0
 33 29  1  0
 17 13  2  0
  1 35  1  0
  1 36  1  0
  1 37  1  0
  3 38  1  0
  5 39  1  0
  8 40  1  0
  8 41  1  0
  9 42  1  0
 10 43  1  0
 11 44  1  0
 12 45  1  0
 12 46  1  0
 15 47  1  0
 16 48  1  0
 18 49  1  0
 18 50  1  0
 22 51  1  0
 23 52  1  0
 25 53  1  0
 30 54  1  0
 32 55  1  0
M  END
>  <Energy>  (535) 
577.66512006289156

>  <compound_id>  (535) 
191

>  <target_id>  (535) 
1

>  <reference_id>  (535) 
177

>  <inspiration_ids>  (535) 
[177, 175]

>  <energy_score>  (535) 
494.59205644034057

>  <distance_score>  (535) 
5.556495239124248

>  <path>  (535) 
/opt/xchem-fragalysis-2/maxwin/BulkDock/SCRATCH/505736/C191-P177/C191-P177.minimised.mol

>  <scratch_subdir>  (535) 
/opt/xchem-fragalysis-2/maxwin/BulkDock/SCRATCH/505736/C191-P177

>  <fragmenstein_runtime>  (535) 
20.67956233024597

>  <fragmenstein_outcome>  (535) 
too moved

>  <fragmenstein_mode>  (535) 
expansion

>  <fragmenstein_error>  (535) 


$$$$
C191-P175
     RDKit          3D

 55 58  0  0  0  0  0  0  0  0999 V2000
    6.4661   -6.5637   24.4609 C   0  0  0  0  0  0  0  0  0  0  0  0
    6.7636   -5.5717   25.5343 C   0  0  0  0  0  0  0  0  0  0  0  0
    6.5433   -4.2312   25.3669 C   0  0  0  0  0  0  0  0  0  0  0  0
    6.9330   -3.4321   26.4123 C   0  0  0  0  0  0  0  0  0  0  0  0
    6.8208   -2.0875   26.3473 O   0  0  0  0  0  0  0  0  0  0  0  0
    7.2603   -3.8629   27.6256 N   0  0  0  0  0  0  0  0  0  0  0  0
    7.2107   -5.1897   27.7511 C   0  0  0  0  0  0  0  0  0  0  0  0
    6.6081   -5.6660   29.0336 C   0  0  0  0  0  0  0  0  0  0  0  0
    5.5241   -6.7223   28.7430 C   0  0  0  0  0  0  0  0  0  0  0  0
    4.3284   -6.5462   27.7916 N   0  0  0  0  0  0  0  0  0  0  0  0
    3.3651   -5.3743   27.9665 C   0  0  0  0  0  0  0  0  0  0  0  0
    4.1650   -4.0420   27.8784 C   0  0  0  0  0  0  0  0  0  0  0  0
    3.3016   -2.8717   27.9565 C   0  0  0  0  0  0  0  0  0  0  0  0
    3.7992   -1.2721   28.1052 S   0  0  0  0  0  0  0  0  0  0  0  0
    2.1690   -0.7434   28.0725 C   0  0  0  0  0  0  0  0  0  0  0  0
    1.2858   -1.8010   27.9679 C   0  0  0  0  0  0  0  0  0  0  0  0
    1.9667   -3.0475   27.8732 C   0  0  0  0  0  0  0  0  0  0  0  0
    1.4424   -4.4299   27.7488 C   0  0  0  0  0  0  0  0  0  0  0  0
    2.2404   -5.4861   26.7564 N   0  0  0  0  0  0  0  0  0  0  0  0
    2.2379   -4.9858   25.3552 C   0  0  0  0  0  0  0  0  0  0  0  0
    3.0971   -4.2884   24.8931 O   0  0  0  0  0  0  0  0  0  0  0  0
    0.7559   -5.3492   23.9062 C   0  0  0  0  0  0  0  0  0  0  0  0
    0.4418   -6.8237   22.9991 S   0  0  0  0  0  0  0  0  0  0  0  0
   -1.4499   -5.2260   24.3687 Cl  0  0  0  0  0  0  0  0  0  0  0  0
    6.1219   -8.0313   28.4491 N   0  0  0  0  0  0  0  0  0  0  0  0
    7.6626   -8.6292   28.7963 S   0  0  0  0  0  0  0  0  0  0  0  0
    7.4486   -9.7707   29.6568 O   0  0  0  0  0  0  0  0  0  0  0  0
    8.6159   -7.6037   29.1438 O   0  0  0  0  0  0  0  0  0  0  0  0
    8.2831   -9.3200   27.3128 C   0  0  0  0  0  0  0  0  0  0  0  0
    9.4146   -8.8520   26.6720 C   0  0  0  0  0  0  0  0  0  0  0  0
    9.6604   -9.7226   25.2189 S   0  0  0  0  0  0  0  0  0  0  0  0
    8.2449  -10.6383   25.5455 C   0  0  0  0  0  0  0  0  0  0  0  0
    7.6131  -10.3566   26.6612 N   0  0  0  0  0  0  0  0  0  0  0  0
    7.1312   -6.0597   26.7258 N   0  0  0  0  0  0  0  0  0  0  0  0
    6.7756   -6.1816   23.4880 H   0  0  0  0  0  0  0  0  0  0  0  0
    7.0127   -7.4926   24.6463 H   0  0  0  0  0  0  0  0  0  0  0  0
    5.3963   -6.7890   24.4425 H   0  0  0  0  0  0  0  0  0  0  0  0
    6.1701   -3.8219   24.4450 H   0  0  0  0  0  0  0  0  0  0  0  0
    7.1499   -1.8357   27.2265 H   0  0  0  0  0  0  0  0  0  0  0  0
    6.1798   -4.8346   29.5978 H   0  0  0  0  0  0  0  0  0  0  0  0
    7.3685   -5.9969   29.7369 H   0  0  0  0  0  0  0  0  0  0  0  0
    5.0166   -6.8465   29.6810 H   0  0  0  0  0  0  0  0  0  0  0  0
    4.7564   -6.4396   26.8663 H   0  0  0  0  0  0  0  0  0  0  0  0
    2.9297   -5.5761   28.9535 H   0  0  0  0  0  0  0  0  0  0  0  0
    4.6436   -4.0126   26.9123 H   0  0  0  0  0  0  0  0  0  0  0  0
    4.8614   -3.9390   28.6950 H   0  0  0  0  0  0  0  0  0  0  0  0
    1.9377    0.3112   28.1324 H   0  0  0  0  0  0  0  0  0  0  0  0
    0.2097   -1.6702   27.9279 H   0  0  0  0  0  0  0  0  0  0  0  0
    0.4691   -4.2441   27.2969 H   0  0  0  0  0  0  0  0  0  0  0  0
    1.2098   -4.8724   28.7298 H   0  0  0  0  0  0  0  0  0  0  0  0
    0.7342   -4.5251   23.1689 H   0  0  0  0  0  0  0  0  0  0  0  0
    0.5873   -6.1319   21.8662 H   0  0  0  0  0  0  0  0  0  0  0  0
    5.4923   -8.7905   28.6615 H   0  0  0  0  0  0  0  0  0  0  0  0
   10.0729   -8.0498   26.9773 H   0  0  0  0  0  0  0  0  0  0  0  0
    7.8975  -11.4056   24.8660 H   0  0  0  0  0  0  0  0  0  0  0  0
  1  2  1  0
  2  3  2  0
  3  4  1  0
  4  5  1  0
  4  6  2  0
  6  7  1  0
  7  8  1  0
  8  9  1  0
  9 10  1  0
 10 11  1  0
 11 12  1  0
 12 13  1  0
 13 14  1  0
 14 15  1  0
 15 16  2  0
 16 17  1  0
 17 18  1  0
 18 19  1  0
 19 20  1  0
 20 21  2  0
 20 22  1  0
 22 23  1  0
 22 24  1  0
  9 25  1  0
 25 26  1  0
 26 27  2  0
 26 28  2  0
 26 29  1  0
 29 30  2  0
 30 31  1  0
 31 32  1  0
 32 33  2  0
  7 34  2  0
 34  2  1  0
 19 11  1  0
 33 29  1  0
 17 13  2  0
  1 35  1  0
  1 36  1  0
  1 37  1  0
  3 38  1  0
  5 39  1  0
  8 40  1  0
  8 41  1  0
  9 42  1  0
 10 43  1  0
 11 44  1  0
 12 45  1  0
 12 46  1  0
 15 47  1  0
 16 48  1  0
 18 49  1  0
 18 50  1  0
 22 51  1  0
 23 52  1  0
 25 53  1  0
 30 54  1  0
 32 55  1  0
M  END
>  <Energy>  (536) 
200.87478947995572

>  <compound_id>  (536) 
191

>  <target_id>  (536) 
1

>  <reference_id>  (536) 
175

>  <inspiration_ids>  (536) 
[177, 175]

>  <energy_score>  (536) 
117.80172585741497

>  <distance_score>  (536) 
5.313513894899124

>  <path>  (536) 
/opt/xchem-fragalysis-2/maxwin/BulkDock/SCRATCH/505736/C191-P175/C191-P175.minimised.mol

>  <scratch_subdir>  (536) 
/opt/xchem-fragalysis-2/maxwin/BulkDock/SCRATCH/505736/C191-P175

>  <fragmenstein_runtime>  (536) 
16.996206045150757

>  <fragmenstein_outcome>  (536) 
too moved

>  <fragmenstein_mode>  (536) 
expansion

>  <fragmenstein_error>  (536) 


$$$$
C238-P177
     RDKit          3D

 55 58  0  0  0  0  0  0  0  0999 V2000
   -0.5507   -3.4796   34.4509 N   0  0  0  0  0  0  0  0  0  0  0  0
   -0.6290   -3.8126   33.1057 C   0  0  0  0  0  0  0  0  0  0  0  0
   -0.2553   -5.0785   32.6896 C   0  0  0  0  0  0  0  0  0  0  0  0
   -0.1979   -5.3268   31.3279 C   0  0  0  0  0  0  0  0  0  0  0  0
   -0.5109   -4.2955   30.4342 C   0  0  0  0  0  0  0  0  0  0  0  0
    0.0487   -4.4621   28.7762 S   0  0  0  0  0  0  0  0  0  0  0  0
    1.4731   -4.4909   28.9972 O   0  0  0  0  0  0  0  0  0  0  0  0
   -0.6326   -5.6073   28.2146 O   0  0  0  0  0  0  0  0  0  0  0  0
   -0.4803   -3.0950   27.8655 N   0  0  0  0  0  0  0  0  0  0  0  0
    0.3627   -2.3057   26.7590 C   0  0  0  0  0  0  0  0  0  0  0  0
    1.2803   -1.2465   27.4346 C   0  0  0  0  0  0  0  0  0  0  0  0
    2.1162   -1.5518   28.6479 C   0  0  0  0  0  0  0  0  0  0  0  0
    3.4289   -1.7562   28.4293 N   0  0  0  0  0  0  0  0  0  0  0  0
    4.2080   -1.9727   29.5035 C   0  0  0  0  0  0  0  0  0  0  0  0
    3.7343   -1.9493   30.7865 C   0  0  0  0  0  0  0  0  0  0  0  0
    2.3937   -1.6968   30.8919 C   0  0  0  0  0  0  0  0  0  0  0  0
    1.8314   -1.6445   32.1318 O   0  0  0  0  0  0  0  0  0  0  0  0
    1.5489   -1.4908   29.8701 N   0  0  0  0  0  0  0  0  0  0  0  0
    0.9348   -3.2635   25.4815 C   0  0  0  0  0  0  0  0  0  0  0  0
    1.9189   -4.2275   26.3097 C   0  0  0  0  0  0  0  0  0  0  0  0
    3.2994   -4.1584   25.9621 C   0  0  0  0  0  0  0  0  0  0  0  0
    4.6077   -4.8384   26.7689 S   0  0  0  0  0  0  0  0  0  0  0  0
    5.6446   -3.6750   26.0510 C   0  0  0  0  0  0  0  0  0  0  0  0
    4.9383   -2.8354   25.2107 C   0  0  0  0  0  0  0  0  0  0  0  0
    3.5799   -3.2361   25.0427 C   0  0  0  0  0  0  0  0  0  0  0  0
    2.5332   -2.5940   24.2060 C   0  0  0  0  0  0  0  0  0  0  0  0
    1.0973   -2.8897   23.7331 N   0  0  0  0  0  0  0  0  0  0  0  0
    1.0881   -3.9248   22.2667 C   0  0  0  0  0  0  0  0  0  0  0  0
    1.0532   -5.0800   22.5090 O   0  0  0  0  0  0  0  0  0  0  0  0
    0.9454   -3.6933   20.3615 C   0  0  0  0  0  0  0  0  0  0  0  0
    0.9921   -2.2678   18.3531 S   0  0  0  0  0  0  0  0  0  0  0  0
    1.3710   -1.5127   19.3005 Cl  0  0  0  0  0  0  0  0  0  0  0  0
   -0.9588   -3.0973   30.9248 C   0  0  0  0  0  0  0  0  0  0  0  0
   -1.0332   -2.8438   32.2549 N   0  0  0  0  0  0  0  0  0  0  0  0
    0.3869   -3.6013   34.8154 H   0  0  0  0  0  0  0  0  0  0  0  0
   -0.8641   -2.5178   34.5499 H   0  0  0  0  0  0  0  0  0  0  0  0
    0.0352   -5.8355   33.4089 H   0  0  0  0  0  0  0  0  0  0  0  0
    0.1770   -6.2795   30.9626 H   0  0  0  0  0  0  0  0  0  0  0  0
   -1.4014   -3.3595   27.4624 H   0  0  0  0  0  0  0  0  0  0  0  0
   -0.4417   -1.7299   26.2890 H   0  0  0  0  0  0  0  0  0  0  0  0
    0.6441   -0.3959   27.7158 H   0  0  0  0  0  0  0  0  0  0  0  0
    1.9899   -0.8596   26.7071 H   0  0  0  0  0  0  0  0  0  0  0  0
    5.2536   -2.1668   29.2859 H   0  0  0  0  0  0  0  0  0  0  0  0
    4.3640   -2.1155   31.6462 H   0  0  0  0  0  0  0  0  0  0  0  0
    0.8832   -1.5450   31.9253 H   0  0  0  0  0  0  0  0  0  0  0  0
   -0.0685   -3.6596   25.3175 H   0  0  0  0  0  0  0  0  0  0  0  0
    2.0214   -3.7039   27.2430 H   0  0  0  0  0  0  0  0  0  0  0  0
    1.5980   -5.2148   26.6104 H   0  0  0  0  0  0  0  0  0  0  0  0
    6.6990   -3.6506   26.2894 H   0  0  0  0  0  0  0  0  0  0  0  0
    5.3645   -1.9967   24.6831 H   0  0  0  0  0  0  0  0  0  0  0  0
    2.4574   -1.6538   24.7347 H   0  0  0  0  0  0  0  0  0  0  0  0
    3.0884   -2.6291   23.3421 H   0  0  0  0  0  0  0  0  0  0  0  0
    0.1243   -4.2979   20.0044 H   0  0  0  0  0  0  0  0  0  0  0  0
   -0.3143   -1.9934   18.4217 H   0  0  0  0  0  0  0  0  0  0  0  0
   -1.1877   -2.2539   30.2799 H   0  0  0  0  0  0  0  0  0  0  0  0
  1  2  1  0
  2  3  2  0
  3  4  1  0
  4  5  2  0
  5  6  1  0
  6  7  2  0
  6  8  2  0
  6  9  1  0
  9 10  1  0
 10 11  1  0
 11 12  1  0
 12 13  2  0
 13 14  1  0
 14 15  2  0
 15 16  1  0
 16 17  1  0
 16 18  2  0
 10 19  1  0
 19 20  1  0
 20 21  1  0
 21 22  1  0
 22 23  1  0
 23 24  2  0
 24 25  1  0
 25 26  1  0
 26 27  1  0
 27 28  1  0
 28 29  2  0
 28 30  1  0
 30 31  1  0
 30 32  1  0
  5 33  1  0
 33 34  2  0
 34  2  1  0
 18 12  1  0
 27 19  1  0
 25 21  2  0
  1 35  1  0
  1 36  1  0
  3 37  1  0
  4 38  1  0
  9 39  1  0
 10 40  1  0
 11 41  1  0
 11 42  1  0
 14 43  1  0
 15 44  1  0
 17 45  1  0
 19 46  1  0
 20 47  1  0
 20 48  1  0
 23 49  1  0
 24 50  1  0
 26 51  1  0
 26 52  1  0
 30 53  1  0
 31 54  1  0
 33 55  1  0
M  END
>  <Energy>  (537) 
594.5400591715287

>  <compound_id>  (537) 
238

>  <target_id>  (537) 
1

>  <reference_id>  (537) 
177

>  <inspiration_ids>  (537) 
[177, 180]

>  <energy_score>  (537) 
532.1084415850522

>  <distance_score>  (537) 
5.301947407176219

>  <path>  (537) 
/opt/xchem-fragalysis-2/maxwin/BulkDock/SCRATCH/505736/C238-P177/C238-P177.minimised.mol

>  <scratch_subdir>  (537) 
/opt/xchem-fragalysis-2/maxwin/BulkDock/SCRATCH/505736/C238-P177

>  <fragmenstein_runtime>  (537) 
28.63499426841736

>  <fragmenstein_outcome>  (537) 
too moved

>  <fragmenstein_mode>  (537) 
expansion

>  <fragmenstein_error>  (537) 


$$$$
C238-P180
     RDKit          3D

 55 58  0  0  0  0  0  0  0  0999 V2000
   -0.1631   -5.2324   33.5588 N   0  0  0  0  0  0  0  0  0  0  0  0
    0.6373   -4.9645   32.4573 C   0  0  0  0  0  0  0  0  0  0  0  0
    1.9937   -4.7213   32.6260 C   0  0  0  0  0  0  0  0  0  0  0  0
    2.7915   -4.5391   31.4989 C   0  0  0  0  0  0  0  0  0  0  0  0
    2.2029   -4.5969   30.2371 C   0  0  0  0  0  0  0  0  0  0  0  0
    3.2073   -4.6463   28.7787 S   0  0  0  0  0  0  0  0  0  0  0  0
    4.4818   -5.1867   29.2011 O   0  0  0  0  0  0  0  0  0  0  0  0
    2.4530   -5.3049   27.7393 O   0  0  0  0  0  0  0  0  0  0  0  0
    3.4706   -3.0430   28.3542 N   0  0  0  0  0  0  0  0  0  0  0  0
    2.7952   -2.4065   27.1583 C   0  0  0  0  0  0  0  0  0  0  0  0
    2.2850   -0.9690   27.4467 C   0  0  0  0  0  0  0  0  0  0  0  0
    2.7259   -0.2017   28.6665 C   0  0  0  0  0  0  0  0  0  0  0  0
    3.0289   -0.8855   29.7957 N   0  0  0  0  0  0  0  0  0  0  0  0
    3.3533   -0.1486   30.8806 C   0  0  0  0  0  0  0  0  0  0  0  0
    3.3660    1.2211   30.8900 C   0  0  0  0  0  0  0  0  0  0  0  0
    3.0113    1.7969   29.7038 C   0  0  0  0  0  0  0  0  0  0  0  0
    2.9708    3.1478   29.5846 O   0  0  0  0  0  0  0  0  0  0  0  0
    2.6755    1.1415   28.5892 N   0  0  0  0  0  0  0  0  0  0  0  0
    3.7473   -2.5790   25.6743 C   0  0  0  0  0  0  0  0  0  0  0  0
    5.3050   -2.6650   26.2673 C   0  0  0  0  0  0  0  0  0  0  0  0
    5.5636   -1.2690   26.0774 C   0  0  0  0  0  0  0  0  0  0  0  0
    5.9340   -0.1174   27.2234 S   0  0  0  0  0  0  0  0  0  0  0  0
    5.0750    1.0325   26.2870 C   0  0  0  0  0  0  0  0  0  0  0  0
    4.6352    0.5154   25.0733 C   0  0  0  0  0  0  0  0  0  0  0  0
    4.9686   -0.8627   24.9158 C   0  0  0  0  0  0  0  0  0  0  0  0
    4.4870   -2.2399   23.8865 C   0  0  0  0  0  0  0  0  0  0  0  0
    3.0364   -2.2205   23.9057 N   0  0  0  0  0  0  0  0  0  0  0  0
    1.8224   -3.1490   22.8891 C   0  0  0  0  0  0  0  0  0  0  0  0
    1.5189   -4.1446   23.3779 O   0  0  0  0  0  0  0  0  0  0  0  0
    1.0005   -3.0522   21.1498 C   0  0  0  0  0  0  0  0  0  0  0  0
    1.2446   -1.3680   19.2541 S   0  0  0  0  0  0  0  0  0  0  0  0
    0.8368   -4.7398   20.9275 Cl  0  0  0  0  0  0  0  0  0  0  0  0
    0.8440   -4.8361   30.1592 C   0  0  0  0  0  0  0  0  0  0  0  0
    0.0511   -5.0233   31.2481 N   0  0  0  0  0  0  0  0  0  0  0  0
   -1.1226   -5.3395   33.2415 H   0  0  0  0  0  0  0  0  0  0  0  0
   -0.0980   -4.5119   34.2698 H   0  0  0  0  0  0  0  0  0  0  0  0
    2.4326   -4.7096   33.6182 H   0  0  0  0  0  0  0  0  0  0  0  0
    3.8640   -4.3965   31.6096 H   0  0  0  0  0  0  0  0  0  0  0  0
    3.4941   -2.4165   29.1735 H   0  0  0  0  0  0  0  0  0  0  0  0
    1.9101   -3.0298   27.0520 H   0  0  0  0  0  0  0  0  0  0  0  0
    1.1925   -1.0274   27.5502 H   0  0  0  0  0  0  0  0  0  0  0  0
    2.4584   -0.3433   26.5701 H   0  0  0  0  0  0  0  0  0  0  0  0
    3.6093   -0.7144   31.7717 H   0  0  0  0  0  0  0  0  0  0  0  0
    3.6275    1.8027   31.7609 H   0  0  0  0  0  0  0  0  0  0  0  0
    2.6876    3.2334   28.6565 H   0  0  0  0  0  0  0  0  0  0  0  0
    3.5753   -3.6757   25.5738 H   0  0  0  0  0  0  0  0  0  0  0  0
    5.3912   -2.9691   27.3072 H   0  0  0  0  0  0  0  0  0  0  0  0
    5.9707   -3.3456   25.7309 H   0  0  0  0  0  0  0  0  0  0  0  0
    4.9409    2.0393   26.6557 H   0  0  0  0  0  0  0  0  0  0  0  0
    4.1020    1.1412   24.3743 H   0  0  0  0  0  0  0  0  0  0  0  0
    4.7917   -1.8025   22.9523 H   0  0  0  0  0  0  0  0  0  0  0  0
    5.1820   -3.0383   24.1133 H   0  0  0  0  0  0  0  0  0  0  0  0
    0.0800   -2.7096   21.6858 H   0  0  0  0  0  0  0  0  0  0  0  0
    0.2704   -1.9280   18.5228 H   0  0  0  0  0  0  0  0  0  0  0  0
    0.3269   -4.9038   29.2076 H   0  0  0  0  0  0  0  0  0  0  0  0
  1  2  1  0
  2  3  2  0
  3  4  1  0
  4  5  2  0
  5  6  1  0
  6  7  2  0
  6  8  2  0
  6  9  1  0
  9 10  1  0
 10 11  1  0
 11 12  1  0
 12 13  2  0
 13 14  1  0
 14 15  2  0
 15 16  1  0
 16 17  1  0
 16 18  2  0
 10 19  1  0
 19 20  1  0
 20 21  1  0
 21 22  1  0
 22 23  1  0
 23 24  2  0
 24 25  1  0
 25 26  1  0
 26 27  1  0
 27 28  1  0
 28 29  2  0
 28 30  1  0
 30 31  1  0
 30 32  1  0
  5 33  1  0
 33 34  2  0
 34  2  1  0
 18 12  1  0
 27 19  1  0
 25 21  2  0
  1 35  1  0
  1 36  1  0
  3 37  1  0
  4 38  1  0
  9 39  1  0
 10 40  1  0
 11 41  1  0
 11 42  1  0
 14 43  1  0
 15 44  1  0
 17 45  1  0
 19 46  1  0
 20 47  1  0
 20 48  1  0
 23 49  1  0
 24 50  1  0
 26 51  1  0
 26 52  1  0
 30 53  1  0
 31 54  1  0
 33 55  1  0
M  END
>  <Energy>  (538) 
484.88838188877776

>  <compound_id>  (538) 
238

>  <target_id>  (538) 
1

>  <reference_id>  (538) 
180

>  <inspiration_ids>  (538) 
[177, 180]

>  <energy_score>  (538) 
422.45676430229173

>  <distance_score>  (538) 
5.56925421573262

>  <path>  (538) 
/opt/xchem-fragalysis-2/maxwin/BulkDock/SCRATCH/505736/C238-P180/C238-P180.minimised.mol

>  <scratch_subdir>  (538) 
/opt/xchem-fragalysis-2/maxwin/BulkDock/SCRATCH/505736/C238-P180

>  <fragmenstein_runtime>  (538) 
17.102157831192017

>  <fragmenstein_outcome>  (538) 
too moved

>  <fragmenstein_mode>  (538) 
expansion

>  <fragmenstein_error>  (538) 


$$$$
C238-P177
     RDKit          3D

 55 58  0  0  0  0  0  0  0  0999 V2000
   -1.0077   -5.0175   31.6006 N   0  0  0  0  0  0  0  0  0  0  0  0
   -0.3323   -4.7169   30.4177 C   0  0  0  0  0  0  0  0  0  0  0  0
    0.1300   -5.7253   29.5903 C   0  0  0  0  0  0  0  0  0  0  0  0
    0.8852   -5.3854   28.4640 C   0  0  0  0  0  0  0  0  0  0  0  0
    1.0748   -4.0515   28.1294 C   0  0  0  0  0  0  0  0  0  0  0  0
    2.4310   -3.5298   27.0776 S   0  0  0  0  0  0  0  0  0  0  0  0
    3.4798   -4.3760   27.6164 O   0  0  0  0  0  0  0  0  0  0  0  0
    2.4830   -2.0947   27.2237 O   0  0  0  0  0  0  0  0  0  0  0  0
    2.2031   -4.0402   25.2679 N   0  0  0  0  0  0  0  0  0  0  0  0
    2.4982   -3.0644   23.6277 C   0  0  0  0  0  0  0  0  0  0  0  0
    3.8659   -2.2659   24.3399 C   0  0  0  0  0  0  0  0  0  0  0  0
    4.8726   -2.8988   25.3178 C   0  0  0  0  0  0  0  0  0  0  0  0
    5.5195   -2.0633   26.1560 N   0  0  0  0  0  0  0  0  0  0  0  0
    6.4417   -2.5977   26.9834 C   0  0  0  0  0  0  0  0  0  0  0  0
    6.7587   -3.9283   27.0061 C   0  0  0  0  0  0  0  0  0  0  0  0
    6.0345   -4.6861   26.1346 C   0  0  0  0  0  0  0  0  0  0  0  0
    6.2457   -6.0260   26.0529 O   0  0  0  0  0  0  0  0  0  0  0  0
    5.0787   -4.2281   25.3123 N   0  0  0  0  0  0  0  0  0  0  0  0
    1.5360   -3.3505   21.7897 C   0  0  0  0  0  0  0  0  0  0  0  0
    0.8038   -4.4292   22.6501 C   0  0  0  0  0  0  0  0  0  0  0  0
    0.0325   -3.7209   23.8120 C   0  0  0  0  0  0  0  0  0  0  0  0
   -1.3298   -3.9242   24.9409 S   0  0  0  0  0  0  0  0  0  0  0  0
   -0.6709   -2.6626   25.8194 C   0  0  0  0  0  0  0  0  0  0  0  0
    0.4060   -2.3506   25.0066 C   0  0  0  0  0  0  0  0  0  0  0  0
   -0.0220   -2.4153   23.6202 C   0  0  0  0  0  0  0  0  0  0  0  0
   -0.1663   -2.0467   21.9126 C   0  0  0  0  0  0  0  0  0  0  0  0
    1.1995   -1.8505   20.3565 N   0  0  0  0  0  0  0  0  0  0  0  0
    1.0476   -1.8928   18.8432 C   0  0  0  0  0  0  0  0  0  0  0  0
    1.1299   -2.8428   18.1624 O   0  0  0  0  0  0  0  0  0  0  0  0
    0.8615   -0.3824   18.1431 C   0  0  0  0  0  0  0  0  0  0  0  0
    1.2638    0.1380   16.5029 S   0  0  0  0  0  0  0  0  0  0  0  0
    1.4001    1.1585   18.8901 Cl  0  0  0  0  0  0  0  0  0  0  0  0
    0.5292   -3.1141   28.9965 C   0  0  0  0  0  0  0  0  0  0  0  0
   -0.1831   -3.4211   30.1189 N   0  0  0  0  0  0  0  0  0  0  0  0
   -1.1475   -4.1276   32.0800 H   0  0  0  0  0  0  0  0  0  0  0  0
   -0.4698   -5.6526   32.1802 H   0  0  0  0  0  0  0  0  0  0  0  0
   -0.0399   -6.7662   29.8442 H   0  0  0  0  0  0  0  0  0  0  0  0
    1.4110   -6.1601   27.9280 H   0  0  0  0  0  0  0  0  0  0  0  0
    3.0430   -4.6464   25.3091 H   0  0  0  0  0  0  0  0  0  0  0  0
    3.2227   -3.6774   23.2301 H   0  0  0  0  0  0  0  0  0  0  0  0
    4.5430   -1.8849   23.5795 H   0  0  0  0  0  0  0  0  0  0  0  0
    3.4433   -1.4816   24.9760 H   0  0  0  0  0  0  0  0  0  0  0  0
    6.9401   -1.8891   27.6366 H   0  0  0  0  0  0  0  0  0  0  0  0
    7.5135   -4.3473   27.6510 H   0  0  0  0  0  0  0  0  0  0  0  0
    5.6914   -6.2492   25.2843 H   0  0  0  0  0  0  0  0  0  0  0  0
    1.1304   -4.1298   21.0746 H   0  0  0  0  0  0  0  0  0  0  0  0
    0.3791   -5.2988   22.1032 H   0  0  0  0  0  0  0  0  0  0  0  0
    1.5711   -4.9843   23.0062 H   0  0  0  0  0  0  0  0  0  0  0  0
   -0.9378   -2.3870   26.8281 H   0  0  0  0  0  0  0  0  0  0  0  0
    1.2207   -1.8015   25.4325 H   0  0  0  0  0  0  0  0  0  0  0  0
   -0.2776   -3.0128   21.7471 H   0  0  0  0  0  0  0  0  0  0  0  0
   -1.2157   -1.7151   22.0832 H   0  0  0  0  0  0  0  0  0  0  0  0
   -0.1739   -0.4038   17.8867 H   0  0  0  0  0  0  0  0  0  0  0  0
    0.7600   -0.9891   15.9897 H   0  0  0  0  0  0  0  0  0  0  0  0
    0.7011   -2.0474   28.8664 H   0  0  0  0  0  0  0  0  0  0  0  0
  1  2  1  0
  2  3  2  0
  3  4  1  0
  4  5  2  0
  5  6  1  0
  6  7  2  0
  6  8  2  0
  6  9  1  0
  9 10  1  0
 10 11  1  0
 11 12  1  0
 12 13  2  0
 13 14  1  0
 14 15  2  0
 15 16  1  0
 16 17  1  0
 16 18  2  0
 10 19  1  0
 19 20  1  0
 20 21  1  0
 21 22  1  0
 22 23  1  0
 23 24  2  0
 24 25  1  0
 25 26  1  0
 26 27  1  0
 27 28  1  0
 28 29  2  0
 28 30  1  0
 30 31  1  0
 30 32  1  0
  5 33  1  0
 33 34  2  0
 34  2  1  0
 18 12  1  0
 27 19  1  0
 25 21  2  0
  1 35  1  0
  1 36  1  0
  3 37  1  0
  4 38  1  0
  9 39  1  0
 10 40  1  0
 11 41  1  0
 11 42  1  0
 14 43  1  0
 15 44  1  0
 17 45  1  0
 19 46  1  0
 20 47  1  0
 20 48  1  0
 23 49  1  0
 24 50  1  0
 26 51  1  0
 26 52  1  0
 30 53  1  0
 31 54  1  0
 33 55  1  0
M  END
>  <Energy>  (539) 
879.44512043366331

>  <compound_id>  (539) 
238

>  <target_id>  (539) 
1

>  <reference_id>  (539) 
177

>  <inspiration_ids>  (539) 
[177, 183]

>  <energy_score>  (539) 
817.0135028471816

>  <distance_score>  (539) 
7.843650294288733

>  <path>  (539) 
/opt/xchem-fragalysis-2/maxwin/BulkDock/SCRATCH/505736/C238-P177/C238-P177.minimised.mol

>  <scratch_subdir>  (539) 
/opt/xchem-fragalysis-2/maxwin/BulkDock/SCRATCH/505736/C238-P177

>  <fragmenstein_runtime>  (539) 
22.92819118499756

>  <fragmenstein_outcome>  (539) 
too moved

>  <fragmenstein_mode>  (539) 
expansion

>  <fragmenstein_error>  (539) 


$$$$
C238-P183
     RDKit          3D

 55 58  0  0  0  0  0  0  0  0999 V2000
   -1.0836   -8.8930   30.6676 N   0  0  0  0  0  0  0  0  0  0  0  0
   -0.6178   -7.7669   31.3324 C   0  0  0  0  0  0  0  0  0  0  0  0
   -0.8323   -7.5882   32.6913 C   0  0  0  0  0  0  0  0  0  0  0  0
   -0.2324   -6.5061   33.3282 C   0  0  0  0  0  0  0  0  0  0  0  0
    0.5077   -5.6156   32.5600 C   0  0  0  0  0  0  0  0  0  0  0  0
    1.4094   -4.3079   33.3002 S   0  0  0  0  0  0  0  0  0  0  0  0
    1.8099   -4.7593   34.6181 O   0  0  0  0  0  0  0  0  0  0  0  0
    0.6826   -3.0839   33.0867 O   0  0  0  0  0  0  0  0  0  0  0  0
    2.8604   -4.2858   32.4135 N   0  0  0  0  0  0  0  0  0  0  0  0
    3.0907   -3.2826   31.2832 C   0  0  0  0  0  0  0  0  0  0  0  0
    3.4282   -1.8737   31.8124 C   0  0  0  0  0  0  0  0  0  0  0  0
    4.5270   -1.7981   32.8358 C   0  0  0  0  0  0  0  0  0  0  0  0
    5.5568   -0.9668   32.5961 N   0  0  0  0  0  0  0  0  0  0  0  0
    6.5230   -0.9133   33.5364 C   0  0  0  0  0  0  0  0  0  0  0  0
    6.4968   -1.6528   34.6914 C   0  0  0  0  0  0  0  0  0  0  0  0
    5.4040   -2.4625   34.8219 C   0  0  0  0  0  0  0  0  0  0  0  0
    5.2461   -3.2276   35.9317 O   0  0  0  0  0  0  0  0  0  0  0  0
    4.4191   -2.5829   33.9264 N   0  0  0  0  0  0  0  0  0  0  0  0
    4.1385   -3.9247   30.2319 C   0  0  0  0  0  0  0  0  0  0  0  0
    5.5079   -4.2096   30.9587 C   0  0  0  0  0  0  0  0  0  0  0  0
    6.4050   -4.8240   29.9555 C   0  0  0  0  0  0  0  0  0  0  0  0
    7.9247   -5.4895   30.2328 S   0  0  0  0  0  0  0  0  0  0  0  0
    8.1468   -5.7637   28.5502 C   0  0  0  0  0  0  0  0  0  0  0  0
    7.0565   -5.3596   27.8069 C   0  0  0  0  0  0  0  0  0  0  0  0
    6.0407   -4.8222   28.6408 C   0  0  0  0  0  0  0  0  0  0  0  0
    4.7215   -4.2664   28.2801 C   0  0  0  0  0  0  0  0  0  0  0  0
    4.3880   -2.9419   28.9766 N   0  0  0  0  0  0  0  0  0  0  0  0
    3.4665   -2.1910   28.1793 C   0  0  0  0  0  0  0  0  0  0  0  0
    2.2652   -2.1739   28.1857 O   0  0  0  0  0  0  0  0  0  0  0  0
    4.3045   -1.2074   27.2674 C   0  0  0  0  0  0  0  0  0  0  0  0
    4.7467   -1.7969   25.5909 S   0  0  0  0  0  0  0  0  0  0  0  0
    3.3866    0.3148   27.1291 Cl  0  0  0  0  0  0  0  0  0  0  0  0
    0.5874   -5.8181   31.1973 C   0  0  0  0  0  0  0  0  0  0  0  0
    0.0586   -6.8926   30.5727 N   0  0  0  0  0  0  0  0  0  0  0  0
   -0.7638   -9.7427   31.1335 H   0  0  0  0  0  0  0  0  0  0  0  0
   -0.6431   -8.8583   29.7467 H   0  0  0  0  0  0  0  0  0  0  0  0
   -1.4169   -8.3042   33.2601 H   0  0  0  0  0  0  0  0  0  0  0  0
   -0.3394   -6.3739   34.4023 H   0  0  0  0  0  0  0  0  0  0  0  0
    3.6134   -4.2551   33.1178 H   0  0  0  0  0  0  0  0  0  0  0  0
    2.1494   -3.1905   30.7275 H   0  0  0  0  0  0  0  0  0  0  0  0
    2.5368   -1.4427   32.2833 H   0  0  0  0  0  0  0  0  0  0  0  0
    3.6681   -1.2117   30.9727 H   0  0  0  0  0  0  0  0  0  0  0  0
    7.3413   -0.2309   33.3243 H   0  0  0  0  0  0  0  0  0  0  0  0
    7.2690   -1.5946   35.4435 H   0  0  0  0  0  0  0  0  0  0  0  0
    4.3416   -3.5734   35.8128 H   0  0  0  0  0  0  0  0  0  0  0  0
    3.6059   -4.8588   29.9886 H   0  0  0  0  0  0  0  0  0  0  0  0
    5.9730   -3.2765   31.2830 H   0  0  0  0  0  0  0  0  0  0  0  0
    5.3826   -4.8606   31.8275 H   0  0  0  0  0  0  0  0  0  0  0  0
    9.0686   -6.1991   28.1879 H   0  0  0  0  0  0  0  0  0  0  0  0
    7.0195   -5.4357   26.7248 H   0  0  0  0  0  0  0  0  0  0  0  0
    3.8886   -4.9823   28.1913 H   0  0  0  0  0  0  0  0  0  0  0  0
    4.8409   -3.9997   27.2270 H   0  0  0  0  0  0  0  0  0  0  0  0
    5.2337   -0.9505   27.7858 H   0  0  0  0  0  0  0  0  0  0  0  0
    4.1371   -2.9813   25.6504 H   0  0  0  0  0  0  0  0  0  0  0  0
    1.0981   -5.1325   30.5332 H   0  0  0  0  0  0  0  0  0  0  0  0
  1  2  1  0
  2  3  2  0
  3  4  1  0
  4  5  2  0
  5  6  1  0
  6  7  2  0
  6  8  2  0
  6  9  1  0
  9 10  1  0
 10 11  1  0
 11 12  1  0
 12 13  2  0
 13 14  1  0
 14 15  2  0
 15 16  1  0
 16 17  1  0
 16 18  2  0
 10 19  1  0
 19 20  1  0
 20 21  1  0
 21 22  1  0
 22 23  1  0
 23 24  2  0
 24 25  1  0
 25 26  1  0
 26 27  1  0
 27 28  1  0
 28 29  2  0
 28 30  1  0
 30 31  1  0
 30 32  1  0
  5 33  1  0
 33 34  2  0
 34  2  1  0
 18 12  1  0
 27 19  1  0
 25 21  2  0
  1 35  1  0
  1 36  1  0
  3 37  1  0
  4 38  1  0
  9 39  1  0
 10 40  1  0
 11 41  1  0
 11 42  1  0
 14 43  1  0
 15 44  1  0
 17 45  1  0
 19 46  1  0
 20 47  1  0
 20 48  1  0
 23 49  1  0
 24 50  1  0
 26 51  1  0
 26 52  1  0
 30 53  1  0
 31 54  1  0
 33 55  1  0
M  END
>  <Energy>  (540) 
0.37194804457222119

>  <compound_id>  (540) 
238

>  <target_id>  (540) 
1

>  <reference_id>  (540) 
183

>  <inspiration_ids>  (540) 
[177, 183]

>  <energy_score>  (540) 
-62.05966954189461

>  <distance_score>  (540) 
6.4368857247387075

>  <path>  (540) 
/opt/xchem-fragalysis-2/maxwin/BulkDock/SCRATCH/505736/C238-P183/C238-P183.minimised.mol

>  <scratch_subdir>  (540) 
/opt/xchem-fragalysis-2/maxwin/BulkDock/SCRATCH/505736/C238-P183

>  <fragmenstein_runtime>  (540) 
34.97784399986267

>  <fragmenstein_outcome>  (540) 
too moved

>  <fragmenstein_mode>  (540) 
expansion

>  <fragmenstein_error>  (540) 


$$$$
C293-P177
     RDKit          3D

 54 56  0  0  0  0  0  0  0  0999 V2000
    0.9715   -5.2997   31.7462 C   0  0  0  0  0  0  0  0  0  0  0  0
   -0.2050   -6.0652   31.1660 C   0  0  0  0  0  0  0  0  0  0  0  0
   -0.1562   -6.2433   29.7362 O   0  0  0  0  0  0  0  0  0  0  0  0
   -0.3825   -5.1379   28.9864 C   0  0  0  0  0  0  0  0  0  0  0  0
   -0.3996   -3.9868   29.3980 O   0  0  0  0  0  0  0  0  0  0  0  0
   -0.7163   -5.5402   27.5874 C   0  0  0  0  0  0  0  0  0  0  0  0
   -0.9701   -4.5364   26.7188 C   0  0  0  0  0  0  0  0  0  0  0  0
   -1.2465   -4.4453   24.9930 C   0  0  0  0  0  0  0  0  0  0  0  0
   -2.3265   -3.5198   24.9334 C   0  0  0  0  0  0  0  0  0  0  0  0
   -1.7391   -2.2392   25.1422 C   0  0  0  0  0  0  0  0  0  0  0  0
   -2.7883   -1.6245   25.9060 C   0  0  0  0  0  0  0  0  0  0  0  0
   -2.4074   -1.0704   27.1939 N   0  0  0  0  0  0  0  0  0  0  0  0
   -3.8384   -1.5902   25.3110 O   0  0  0  0  0  0  0  0  0  0  0  0
   -1.4869   -2.0648   23.7025 C   0  0  0  0  0  0  0  0  0  0  0  0
   -0.1716   -2.5739   23.3785 C   0  0  0  0  0  0  0  0  0  0  0  0
    0.2431   -3.8101   24.0310 C   0  0  0  0  0  0  0  0  0  0  0  0
    1.1074   -3.3927   25.5813 C   0  0  0  0  0  0  0  0  0  0  0  0
    2.4731   -3.0543   25.5031 C   0  0  0  0  0  0  0  0  0  0  0  0
    3.4163   -2.6205   26.8310 S   0  0  0  0  0  0  0  0  0  0  0  0
    4.6995   -2.2685   25.7859 C   0  0  0  0  0  0  0  0  0  0  0  0
    4.3237   -2.5043   24.4789 C   0  0  0  0  0  0  0  0  0  0  0  0
    3.0236   -3.1070   24.2992 C   0  0  0  0  0  0  0  0  0  0  0  0
    2.2089   -3.6073   23.0669 C   0  0  0  0  0  0  0  0  0  0  0  0
    1.3589   -4.7985   22.8478 N   0  0  0  0  0  0  0  0  0  0  0  0
    1.2239   -5.1962   21.0824 C   0  0  0  0  0  0  0  0  0  0  0  0
    0.3218   -4.6896   20.5105 O   0  0  0  0  0  0  0  0  0  0  0  0
    2.4036   -6.2254   19.7480 C   0  0  0  0  0  0  0  0  0  0  0  0
    2.0346   -8.1086   18.0891 S   0  0  0  0  0  0  0  0  0  0  0  0
    4.5026   -5.1342   19.0231 Cl  0  0  0  0  0  0  0  0  0  0  0  0
    1.9237   -5.6981   31.3974 H   0  0  0  0  0  0  0  0  0  0  0  0
    0.9515   -5.3436   32.8392 H   0  0  0  0  0  0  0  0  0  0  0  0
    0.9476   -4.2458   31.4555 H   0  0  0  0  0  0  0  0  0  0  0  0
   -1.1456   -5.5804   31.4464 H   0  0  0  0  0  0  0  0  0  0  0  0
   -0.2282   -7.0710   31.5983 H   0  0  0  0  0  0  0  0  0  0  0  0
   -0.7205   -6.5895   27.3435 H   0  0  0  0  0  0  0  0  0  0  0  0
   -0.9272   -3.5508   27.1775 H   0  0  0  0  0  0  0  0  0  0  0  0
   -1.6404   -5.3889   24.6055 H   0  0  0  0  0  0  0  0  0  0  0  0
   -3.0237   -3.6975   25.6432 H   0  0  0  0  0  0  0  0  0  0  0  0
   -3.0962   -3.5533   24.1783 H   0  0  0  0  0  0  0  0  0  0  0  0
   -0.8801   -2.1344   25.7476 H   0  0  0  0  0  0  0  0  0  0  0  0
   -1.3871   -1.1979   27.3293 H   0  0  0  0  0  0  0  0  0  0  0  0
   -1.4542   -1.3997   27.4360 H   0  0  0  0  0  0  0  0  0  0  0  0
   -2.3050   -2.2301   22.9977 H   0  0  0  0  0  0  0  0  0  0  0  0
   -1.3279   -1.0840   23.4664 H   0  0  0  0  0  0  0  0  0  0  0  0
    0.5985   -1.9413   23.7406 H   0  0  0  0  0  0  0  0  0  0  0  0
   -0.1024   -2.5522   22.3145 H   0  0  0  0  0  0  0  0  0  0  0  0
    0.6777   -2.5451   26.0973 H   0  0  0  0  0  0  0  0  0  0  0  0
    1.1944   -4.2081   26.3005 H   0  0  0  0  0  0  0  0  0  0  0  0
    5.6338   -1.8667   26.1486 H   0  0  0  0  0  0  0  0  0  0  0  0
    4.9800   -2.2302   23.6736 H   0  0  0  0  0  0  0  0  0  0  0  0
    2.9638   -3.8128   22.4134 H   0  0  0  0  0  0  0  0  0  0  0  0
    1.6102   -2.9404   22.6108 H   0  0  0  0  0  0  0  0  0  0  0  0
    3.2568   -6.7780   19.5634 H   0  0  0  0  0  0  0  0  0  0  0  0
    0.8748   -7.9470   17.4158 H   0  0  0  0  0  0  0  0  0  0  0  0
  1  2  1  0
  2  3  1  0
  3  4  1  0
  4  5  2  0
  4  6  1  0
  6  7  2  3
  7  8  1  0
  8  9  1  0
  9 10  1  0
 10 11  1  0
 11 12  1  0
 11 13  2  0
 10 14  1  0
 14 15  1  0
 15 16  1  0
 16 17  1  0
 17 18  1  0
 18 19  1  0
 19 20  1  0
 20 21  2  0
 21 22  1  0
 22 23  1  0
 23 24  1  0
 24 25  1  0
 25 26  2  0
 25 27  1  0
 27 28  1  0
 27 29  1  0
 16  8  1  0
 22 18  2  0
 24 16  1  0
  1 30  1  0
  1 31  1  0
  1 32  1  0
  2 33  1  0
  2 34  1  0
  6 35  1  0
  7 36  1  0
  8 37  1  0
  9 38  1  0
  9 39  1  0
 10 40  1  0
 12 41  1  0
 12 42  1  0
 14 43  1  0
 14 44  1  0
 15 45  1  0
 15 46  1  0
 17 47  1  0
 17 48  1  0
 20 49  1  0
 21 50  1  0
 23 51  1  0
 23 52  1  0
 27 53  1  0
 28 54  1  0
M  END
>  <Energy>  (541) 
986.84690240344526

>  <compound_id>  (541) 
293

>  <target_id>  (541) 
1

>  <reference_id>  (541) 
177

>  <inspiration_ids>  (541) 
[177, 186]

>  <energy_score>  (541) 
773.0089992450929

>  <distance_score>  (541) 
5.81890042803938

>  <path>  (541) 
/opt/xchem-fragalysis-2/maxwin/BulkDock/SCRATCH/505736/C293-P177/C293-P177.minimised.mol

>  <scratch_subdir>  (541) 
/opt/xchem-fragalysis-2/maxwin/BulkDock/SCRATCH/505736/C293-P177

>  <fragmenstein_runtime>  (541) 
26.235706329345703

>  <fragmenstein_outcome>  (541) 
too moved

>  <fragmenstein_mode>  (541) 
expansion

>  <fragmenstein_error>  (541) 


$$$$
C293-P186
     RDKit          3D

 54 56  0  0  0  0  0  0  0  0999 V2000
    0.0309   -5.6003   34.6617 C   0  0  0  0  0  0  0  0  0  0  0  0
    0.4693   -6.7884   33.8298 C   0  0  0  0  0  0  0  0  0  0  0  0
    0.1426   -6.5848   32.4489 O   0  0  0  0  0  0  0  0  0  0  0  0
    0.9924   -5.7853   31.7583 C   0  0  0  0  0  0  0  0  0  0  0  0
    2.0234   -5.2832   32.1693 O   0  0  0  0  0  0  0  0  0  0  0  0
    0.4144   -5.5962   30.4147 C   0  0  0  0  0  0  0  0  0  0  0  0
    0.3700   -4.4306   29.7480 C   0  0  0  0  0  0  0  0  0  0  0  0
    0.8696   -3.0766   30.2002 C   0  0  0  0  0  0  0  0  0  0  0  0
   -0.3541   -2.2405   30.6207 C   0  0  0  0  0  0  0  0  0  0  0  0
    0.0785   -1.1721   31.6402 C   0  0  0  0  0  0  0  0  0  0  0  0
   -0.9979   -0.0651   31.8181 C   0  0  0  0  0  0  0  0  0  0  0  0
   -0.7013    0.7359   32.9941 N   0  0  0  0  0  0  0  0  0  0  0  0
   -1.9004    0.0076   31.0331 O   0  0  0  0  0  0  0  0  0  0  0  0
    1.4648   -0.6085   31.2804 C   0  0  0  0  0  0  0  0  0  0  0  0
    1.7678   -0.7374   29.7847 C   0  0  0  0  0  0  0  0  0  0  0  0
    1.8668   -2.2260   29.2019 C   0  0  0  0  0  0  0  0  0  0  0  0
    3.2581   -2.9337   29.4740 C   0  0  0  0  0  0  0  0  0  0  0  0
    4.1912   -2.4914   28.4321 C   0  0  0  0  0  0  0  0  0  0  0  0
    5.8365   -2.8370   28.3693 S   0  0  0  0  0  0  0  0  0  0  0  0
    5.9776   -1.9958   26.8815 C   0  0  0  0  0  0  0  0  0  0  0  0
    4.7710   -1.4771   26.4522 C   0  0  0  0  0  0  0  0  0  0  0  0
    3.7241   -1.7678   27.3735 C   0  0  0  0  0  0  0  0  0  0  0  0
    2.2722   -1.4034   27.3207 C   0  0  0  0  0  0  0  0  0  0  0  0
    1.2635   -2.4949   27.6913 N   0  0  0  0  0  0  0  0  0  0  0  0
    1.4150   -3.6216   26.8048 C   0  0  0  0  0  0  0  0  0  0  0  0
    2.0976   -4.6122   26.9064 O   0  0  0  0  0  0  0  0  0  0  0  0
    0.4370   -3.5237   25.5946 C   0  0  0  0  0  0  0  0  0  0  0  0
    1.1299   -3.0210   24.0282 S   0  0  0  0  0  0  0  0  0  0  0  0
   -1.0646   -2.6874   25.9845 Cl  0  0  0  0  0  0  0  0  0  0  0  0
   -1.0357   -5.4076   34.5190 H   0  0  0  0  0  0  0  0  0  0  0  0
    0.5606   -4.6888   34.3681 H   0  0  0  0  0  0  0  0  0  0  0  0
    0.2163   -5.7824   35.7241 H   0  0  0  0  0  0  0  0  0  0  0  0
   -0.0719   -7.6810   34.1583 H   0  0  0  0  0  0  0  0  0  0  0  0
    1.5391   -6.9898   33.9537 H   0  0  0  0  0  0  0  0  0  0  0  0
   -0.0625   -6.4756   29.9965 H   0  0  0  0  0  0  0  0  0  0  0  0
   -0.1767   -4.4236   28.8073 H   0  0  0  0  0  0  0  0  0  0  0  0
    1.4411   -3.2398   31.1215 H   0  0  0  0  0  0  0  0  0  0  0  0
   -1.1277   -2.8639   31.0896 H   0  0  0  0  0  0  0  0  0  0  0  0
   -0.8228   -1.7964   29.7329 H   0  0  0  0  0  0  0  0  0  0  0  0
    0.1616   -1.6731   32.6159 H   0  0  0  0  0  0  0  0  0  0  0  0
    0.2269    0.4600   33.3665 H   0  0  0  0  0  0  0  0  0  0  0  0
    0.0987    0.3110   33.5004 H   0  0  0  0  0  0  0  0  0  0  0  0
    1.5496    0.4476   31.5606 H   0  0  0  0  0  0  0  0  0  0  0  0
    2.2372   -1.1386   31.8510 H   0  0  0  0  0  0  0  0  0  0  0  0
    2.7064   -0.1993   29.6006 H   0  0  0  0  0  0  0  0  0  0  0  0
    0.9654   -0.1919   29.2682 H   0  0  0  0  0  0  0  0  0  0  0  0
    3.6312   -2.6749   30.4715 H   0  0  0  0  0  0  0  0  0  0  0  0
    3.1588   -4.0244   29.4210 H   0  0  0  0  0  0  0  0  0  0  0  0
    6.9409   -1.9337   26.3967 H   0  0  0  0  0  0  0  0  0  0  0  0
    4.6578   -0.9226   25.5249 H   0  0  0  0  0  0  0  0  0  0  0  0
    2.1108   -1.3280   26.2388 H   0  0  0  0  0  0  0  0  0  0  0  0
    2.0140   -0.3785   27.5943 H   0  0  0  0  0  0  0  0  0  0  0  0
    0.1045   -4.5230   25.3629 H   0  0  0  0  0  0  0  0  0  0  0  0
    2.4064   -2.9303   24.4337 H   0  0  0  0  0  0  0  0  0  0  0  0
  1  2  1  0
  2  3  1  0
  3  4  1  0
  4  5  2  0
  4  6  1  0
  6  7  2  3
  7  8  1  0
  8  9  1  0
  9 10  1  0
 10 11  1  0
 11 12  1  0
 11 13  2  0
 10 14  1  0
 14 15  1  0
 15 16  1  0
 16 17  1  0
 17 18  1  0
 18 19  1  0
 19 20  1  0
 20 21  2  0
 21 22  1  0
 22 23  1  0
 23 24  1  0
 24 25  1  0
 25 26  2  0
 25 27  1  0
 27 28  1  0
 27 29  1  0
 16  8  1  0
 22 18  2  0
 24 16  1  0
  1 30  1  0
  1 31  1  0
  1 32  1  0
  2 33  1  0
  2 34  1  0
  6 35  1  0
  7 36  1  0
  8 37  1  0
  9 38  1  0
  9 39  1  0
 10 40  1  0
 12 41  1  0
 12 42  1  0
 14 43  1  0
 14 44  1  0
 15 45  1  0
 15 46  1  0
 17 47  1  0
 17 48  1  0
 20 49  1  0
 21 50  1  0
 23 51  1  0
 23 52  1  0
 27 53  1  0
 28 54  1  0
M  END
>  <Energy>  (542) 
340.4287926417112

>  <compound_id>  (542) 
293

>  <target_id>  (542) 
1

>  <reference_id>  (542) 
186

>  <inspiration_ids>  (542) 
[177, 186]

>  <energy_score>  (542) 
126.59088948336819

>  <distance_score>  (542) 
5.19305553082359

>  <path>  (542) 
/opt/xchem-fragalysis-2/maxwin/BulkDock/SCRATCH/505736/C293-P186/C293-P186.minimised.mol

>  <scratch_subdir>  (542) 
/opt/xchem-fragalysis-2/maxwin/BulkDock/SCRATCH/505736/C293-P186

>  <fragmenstein_runtime>  (542) 
25.590011835098267

>  <fragmenstein_outcome>  (542) 
too moved

>  <fragmenstein_mode>  (542) 
expansion

>  <fragmenstein_error>  (542) 


$$$$
C293-P177
     RDKit          3D

 54 56  0  0  0  0  0  0  0  0999 V2000
    0.8312   -6.6213   35.2337 C   0  0  0  0  0  0  0  0  0  0  0  0
   -0.5241   -6.5877   34.5571 C   0  0  0  0  0  0  0  0  0  0  0  0
   -0.4330   -7.2261   33.2700 O   0  0  0  0  0  0  0  0  0  0  0  0
   -0.3820   -6.5578   32.0966 C   0  0  0  0  0  0  0  0  0  0  0  0
   -0.7480   -7.0757   31.0489 O   0  0  0  0  0  0  0  0  0  0  0  0
    0.2133   -5.2030   32.1324 C   0  0  0  0  0  0  0  0  0  0  0  0
    0.2603   -4.4718   31.0078 C   0  0  0  0  0  0  0  0  0  0  0  0
    0.7286   -3.0395   30.8467 C   0  0  0  0  0  0  0  0  0  0  0  0
    0.8529   -2.2456   32.1663 C   0  0  0  0  0  0  0  0  0  0  0  0
    0.8881   -0.7155   31.9258 C   0  0  0  0  0  0  0  0  0  0  0  0
   -0.4567   -0.0167   32.2701 C   0  0  0  0  0  0  0  0  0  0  0  0
   -0.2492    1.4139   32.4266 N   0  0  0  0  0  0  0  0  0  0  0  0
   -1.4543   -0.6742   32.3617 O   0  0  0  0  0  0  0  0  0  0  0  0
    1.2894   -0.3724   30.4837 C   0  0  0  0  0  0  0  0  0  0  0  0
    2.4152   -1.2837   30.0171 C   0  0  0  0  0  0  0  0  0  0  0  0
    2.0261   -2.8481   29.9267 C   0  0  0  0  0  0  0  0  0  0  0  0
    3.3507   -3.5130   30.5756 C   0  0  0  0  0  0  0  0  0  0  0  0
    4.2956   -3.7376   29.4707 C   0  0  0  0  0  0  0  0  0  0  0  0
    5.9612   -3.5893   29.4094 S   0  0  0  0  0  0  0  0  0  0  0  0
    5.9580   -4.0387   27.7432 C   0  0  0  0  0  0  0  0  0  0  0  0
    4.6816   -4.3022   27.2769 C   0  0  0  0  0  0  0  0  0  0  0  0
    3.7197   -4.1121   28.2985 C   0  0  0  0  0  0  0  0  0  0  0  0
    2.2384   -4.2220   28.3682 C   0  0  0  0  0  0  0  0  0  0  0  0
    1.5995   -2.8545   28.3202 N   0  0  0  0  0  0  0  0  0  0  0  0
    0.3125   -2.9401   27.6951 C   0  0  0  0  0  0  0  0  0  0  0  0
   -0.7739   -3.1221   28.1717 O   0  0  0  0  0  0  0  0  0  0  0  0
    0.4513   -2.6365   26.1881 C   0  0  0  0  0  0  0  0  0  0  0  0
   -0.9169   -3.1022   25.0832 S   0  0  0  0  0  0  0  0  0  0  0  0
    1.9783   -3.0588   25.4025 Cl  0  0  0  0  0  0  0  0  0  0  0  0
    1.5932   -6.1045   34.6437 H   0  0  0  0  0  0  0  0  0  0  0  0
    0.7803   -6.1594   36.2237 H   0  0  0  0  0  0  0  0  0  0  0  0
    1.1749   -7.6537   35.3493 H   0  0  0  0  0  0  0  0  0  0  0  0
   -0.9200   -5.5706   34.4789 H   0  0  0  0  0  0  0  0  0  0  0  0
   -1.2431   -7.1653   35.1475 H   0  0  0  0  0  0  0  0  0  0  0  0
    0.5925   -4.8144   33.0630 H   0  0  0  0  0  0  0  0  0  0  0  0
   -0.1675   -4.9007   30.0976 H   0  0  0  0  0  0  0  0  0  0  0  0
   -0.1192   -2.5643   30.3402 H   0  0  0  0  0  0  0  0  0  0  0  0
    1.7757   -2.5428   32.6811 H   0  0  0  0  0  0  0  0  0  0  0  0
    0.0396   -2.4999   32.8561 H   0  0  0  0  0  0  0  0  0  0  0  0
    1.6412   -0.3173   32.6203 H   0  0  0  0  0  0  0  0  0  0  0  0
    0.7259    1.6459   32.1594 H   0  0  0  0  0  0  0  0  0  0  0  0
    0.7681    1.6145   32.3913 H   0  0  0  0  0  0  0  0  0  0  0  0
    0.4318   -0.4395   29.8029 H   0  0  0  0  0  0  0  0  0  0  0  0
    1.6319    0.6678   30.4271 H   0  0  0  0  0  0  0  0  0  0  0  0
    3.2532   -1.1105   30.7038 H   0  0  0  0  0  0  0  0  0  0  0  0
    2.7814   -0.9310   29.0432 H   0  0  0  0  0  0  0  0  0  0  0  0
    3.7812   -2.9196   31.3887 H   0  0  0  0  0  0  0  0  0  0  0  0
    3.0852   -4.4739   31.0313 H   0  0  0  0  0  0  0  0  0  0  0  0
    6.8865   -4.0886   27.1882 H   0  0  0  0  0  0  0  0  0  0  0  0
    4.4748   -4.5993   26.2550 H   0  0  0  0  0  0  0  0  0  0  0  0
    1.9332   -4.7468   27.4521 H   0  0  0  0  0  0  0  0  0  0  0  0
    1.8464   -4.9234   29.1136 H   0  0  0  0  0  0  0  0  0  0  0  0
    0.4543   -1.5544   26.2517 H   0  0  0  0  0  0  0  0  0  0  0  0
   -0.2533   -2.8433   23.9471 H   0  0  0  0  0  0  0  0  0  0  0  0
  1  2  1  0
  2  3  1  0
  3  4  1  0
  4  5  2  0
  4  6  1  0
  6  7  2  3
  7  8  1  0
  8  9  1  0
  9 10  1  0
 10 11  1  0
 11 12  1  0
 11 13  2  0
 10 14  1  0
 14 15  1  0
 15 16  1  0
 16 17  1  0
 17 18  1  0
 18 19  1  0
 19 20  1  0
 20 21  2  0
 21 22  1  0
 22 23  1  0
 23 24  1  0
 24 25  1  0
 25 26  2  0
 25 27  1  0
 27 28  1  0
 27 29  1  0
 16  8  1  0
 22 18  2  0
 24 16  1  0
  1 30  1  0
  1 31  1  0
  1 32  1  0
  2 33  1  0
  2 34  1  0
  6 35  1  0
  7 36  1  0
  8 37  1  0
  9 38  1  0
  9 39  1  0
 10 40  1  0
 12 41  1  0
 12 42  1  0
 14 43  1  0
 14 44  1  0
 15 45  1  0
 15 46  1  0
 17 47  1  0
 17 48  1  0
 20 49  1  0
 21 50  1  0
 23 51  1  0
 23 52  1  0
 27 53  1  0
 28 54  1  0
M  END
>  <Energy>  (543) 
365.02220554334832

>  <compound_id>  (543) 
293

>  <target_id>  (543) 
1

>  <reference_id>  (543) 
177

>  <inspiration_ids>  (543) 
[177, 187]

>  <energy_score>  (543) 
151.18430238500275

>  <distance_score>  (543) 
5.354628151748324

>  <path>  (543) 
/opt/xchem-fragalysis-2/maxwin/BulkDock/SCRATCH/505736/C293-P177/C293-P177.minimised.mol

>  <scratch_subdir>  (543) 
/opt/xchem-fragalysis-2/maxwin/BulkDock/SCRATCH/505736/C293-P177

>  <fragmenstein_runtime>  (543) 
41.611719846725464

>  <fragmenstein_outcome>  (543) 
too moved

>  <fragmenstein_mode>  (543) 
expansion

>  <fragmenstein_error>  (543) 


$$$$
C293-P187
     RDKit          3D

 54 56  0  0  0  0  0  0  0  0999 V2000
    0.4581   -3.5465   34.2540 C   0  0  0  0  0  0  0  0  0  0  0  0
    0.4604   -2.9951   32.8402 C   0  0  0  0  0  0  0  0  0  0  0  0
    0.7928   -4.0476   31.9234 O   0  0  0  0  0  0  0  0  0  0  0  0
   -0.2488   -4.8188   31.5426 C   0  0  0  0  0  0  0  0  0  0  0  0
   -1.4236   -4.7015   31.8444 O   0  0  0  0  0  0  0  0  0  0  0  0
    0.2640   -5.9392   30.7388 C   0  0  0  0  0  0  0  0  0  0  0  0
    0.8610   -5.8507   29.5367 C   0  0  0  0  0  0  0  0  0  0  0  0
    1.1358   -4.6196   28.6413 C   0  0  0  0  0  0  0  0  0  0  0  0
    0.0682   -3.5200   28.6293 C   0  0  0  0  0  0  0  0  0  0  0  0
    0.7490   -2.1847   28.9126 C   0  0  0  0  0  0  0  0  0  0  0  0
   -0.2343   -1.0017   29.1367 C   0  0  0  0  0  0  0  0  0  0  0  0
   -1.0268   -0.6695   27.9767 N   0  0  0  0  0  0  0  0  0  0  0  0
   -0.2105   -0.5122   30.2348 O   0  0  0  0  0  0  0  0  0  0  0  0
    1.9267   -1.8908   27.9846 C   0  0  0  0  0  0  0  0  0  0  0  0
    2.8068   -3.0880   27.4982 C   0  0  0  0  0  0  0  0  0  0  0  0
    2.2217   -4.6698   27.3597 C   0  0  0  0  0  0  0  0  0  0  0  0
    3.4924   -5.4015   28.1634 C   0  0  0  0  0  0  0  0  0  0  0  0
    4.6003   -5.6155   27.2598 C   0  0  0  0  0  0  0  0  0  0  0  0
    6.2380   -5.4615   27.5584 S   0  0  0  0  0  0  0  0  0  0  0  0
    6.5813   -6.0816   25.9956 C   0  0  0  0  0  0  0  0  0  0  0  0
    5.4296   -6.4051   25.3008 C   0  0  0  0  0  0  0  0  0  0  0  0
    4.2615   -6.0613   26.0309 C   0  0  0  0  0  0  0  0  0  0  0  0
    2.7851   -6.1950   25.7630 C   0  0  0  0  0  0  0  0  0  0  0  0
    2.1574   -4.7690   25.4811 N   0  0  0  0  0  0  0  0  0  0  0  0
    0.6924   -4.9117   24.3264 C   0  0  0  0  0  0  0  0  0  0  0  0
   -0.4876   -5.0632   24.6145 O   0  0  0  0  0  0  0  0  0  0  0  0
    0.9048   -4.7056   22.8718 C   0  0  0  0  0  0  0  0  0  0  0  0
    0.8109   -4.4672   21.2166 S   0  0  0  0  0  0  0  0  0  0  0  0
    1.7444   -3.2492   22.9279 Cl  0  0  0  0  0  0  0  0  0  0  0  0
    0.2701   -2.7497   34.9791 H   0  0  0  0  0  0  0  0  0  0  0  0
   -0.3098   -4.3168   34.3776 H   0  0  0  0  0  0  0  0  0  0  0  0
    1.4202   -4.0152   34.4860 H   0  0  0  0  0  0  0  0  0  0  0  0
    1.2325   -2.2252   32.7417 H   0  0  0  0  0  0  0  0  0  0  0  0
   -0.4986   -2.5300   32.5847 H   0  0  0  0  0  0  0  0  0  0  0  0
    0.1326   -6.9032   31.2208 H   0  0  0  0  0  0  0  0  0  0  0  0
    1.2661   -6.7957   29.1946 H   0  0  0  0  0  0  0  0  0  0  0  0
    1.8278   -4.1988   29.3940 H   0  0  0  0  0  0  0  0  0  0  0  0
   -0.7063   -3.6786   29.3837 H   0  0  0  0  0  0  0  0  0  0  0  0
   -0.4914   -3.5255   27.7096 H   0  0  0  0  0  0  0  0  0  0  0  0
    1.2102   -2.2952   29.9076 H   0  0  0  0  0  0  0  0  0  0  0  0
   -0.6943   -1.2318   27.1666 H   0  0  0  0  0  0  0  0  0  0  0  0
   -0.8631   -1.3840   27.2384 H   0  0  0  0  0  0  0  0  0  0  0  0
    1.6111   -1.2498   27.1679 H   0  0  0  0  0  0  0  0  0  0  0  0
    2.6017   -1.2131   28.5310 H   0  0  0  0  0  0  0  0  0  0  0  0
    3.6146   -3.0881   28.2428 H   0  0  0  0  0  0  0  0  0  0  0  0
    3.3561   -2.8272   26.5882 H   0  0  0  0  0  0  0  0  0  0  0  0
    3.7946   -4.8705   29.0743 H   0  0  0  0  0  0  0  0  0  0  0  0
    3.1793   -6.3925   28.5085 H   0  0  0  0  0  0  0  0  0  0  0  0
    7.6064   -6.1871   25.6659 H   0  0  0  0  0  0  0  0  0  0  0  0
    5.4539   -6.8415   24.3097 H   0  0  0  0  0  0  0  0  0  0  0  0
    2.8148   -6.8325   24.8791 H   0  0  0  0  0  0  0  0  0  0  0  0
    2.3003   -6.7875   26.5415 H   0  0  0  0  0  0  0  0  0  0  0  0
    0.8138   -5.7595   22.6597 H   0  0  0  0  0  0  0  0  0  0  0  0
    0.6039   -3.1572   21.2382 H   0  0  0  0  0  0  0  0  0  0  0  0
  1  2  1  0
  2  3  1  0
  3  4  1  0
  4  5  2  0
  4  6  1  0
  6  7  2  3
  7  8  1  0
  8  9  1  0
  9 10  1  0
 10 11  1  0
 11 12  1  0
 11 13  2  0
 10 14  1  0
 14 15  1  0
 15 16  1  0
 16 17  1  0
 17 18  1  0
 18 19  1  0
 19 20  1  0
 20 21  2  0
 21 22  1  0
 22 23  1  0
 23 24  1  0
 24 25  1  0
 25 26  2  0
 25 27  1  0
 27 28  1  0
 27 29  1  0
 16  8  1  0
 22 18  2  0
 24 16  1  0
  1 30  1  0
  1 31  1  0
  1 32  1  0
  2 33  1  0
  2 34  1  0
  6 35  1  0
  7 36  1  0
  8 37  1  0
  9 38  1  0
  9 39  1  0
 10 40  1  0
 12 41  1  0
 12 42  1  0
 14 43  1  0
 14 44  1  0
 15 45  1  0
 15 46  1  0
 17 47  1  0
 17 48  1  0
 20 49  1  0
 21 50  1  0
 23 51  1  0
 23 52  1  0
 27 53  1  0
 28 54  1  0
M  END
>  <Energy>  (544) 
607.99054997462997

>  <compound_id>  (544) 
293

>  <target_id>  (544) 
1

>  <reference_id>  (544) 
187

>  <inspiration_ids>  (544) 
[177, 187]

>  <energy_score>  (544) 
394.15264681628923

>  <distance_score>  (544) 
4.836164319669567

>  <path>  (544) 
/opt/xchem-fragalysis-2/maxwin/BulkDock/SCRATCH/505736/C293-P187/C293-P187.minimised.mol

>  <scratch_subdir>  (544) 
/opt/xchem-fragalysis-2/maxwin/BulkDock/SCRATCH/505736/C293-P187

>  <fragmenstein_runtime>  (544) 
26.542641401290894

>  <fragmenstein_outcome>  (544) 
too moved

>  <fragmenstein_mode>  (544) 
expansion

>  <fragmenstein_error>  (544) 


$$$$
C350-P177
     RDKit          3D

 62 65  0  0  0  0  0  0  0  0999 V2000
   -1.4468   -2.3860   32.1870 C   0  0  0  0  0  0  0  0  0  0  0  0
   -0.9684   -3.5598   31.3870 C   0  0  0  0  0  0  0  0  0  0  0  0
   -0.6768   -4.7530   32.0076 C   0  0  0  0  0  0  0  0  0  0  0  0
   -0.3087   -5.7595   31.1622 C   0  0  0  0  0  0  0  0  0  0  0  0
   -0.1589   -7.0231   31.6380 O   0  0  0  0  0  0  0  0  0  0  0  0
   -0.1630   -5.6450   29.8372 N   0  0  0  0  0  0  0  0  0  0  0  0
   -0.4508   -4.4298   29.3061 C   0  0  0  0  0  0  0  0  0  0  0  0
   -0.3724   -4.3354   27.7904 C   0  0  0  0  0  0  0  0  0  0  0  0
   -0.2571   -2.9043   27.0864 C   0  0  0  0  0  0  0  0  0  0  0  0
   -0.0227   -2.6293   25.6060 N   0  0  0  0  0  0  0  0  0  0  0  0
    0.6588   -3.5151   24.5329 C   0  0  0  0  0  0  0  0  0  0  0  0
    1.9279   -4.1439   25.6730 C   0  0  0  0  0  0  0  0  0  0  0  0
    3.0915   -3.3258   25.8519 C   0  0  0  0  0  0  0  0  0  0  0  0
    4.1274   -3.2367   27.1643 S   0  0  0  0  0  0  0  0  0  0  0  0
    5.1176   -2.1584   26.2838 C   0  0  0  0  0  0  0  0  0  0  0  0
    4.6054   -1.9385   25.0185 C   0  0  0  0  0  0  0  0  0  0  0  0
    3.4038   -2.6321   24.7592 C   0  0  0  0  0  0  0  0  0  0  0  0
    2.4516   -2.7385   23.5699 C   0  0  0  0  0  0  0  0  0  0  0  0
    1.0097   -2.6753   22.9868 N   0  0  0  0  0  0  0  0  0  0  0  0
    0.9884   -3.2692   21.2187 C   0  0  0  0  0  0  0  0  0  0  0  0
    0.7899   -4.4626   20.9586 O   0  0  0  0  0  0  0  0  0  0  0  0
    1.1940   -1.8985   19.4790 C   0  0  0  0  0  0  0  0  0  0  0  0
    1.3025   -0.1140   18.5283 S   0  0  0  0  0  0  0  0  0  0  0  0
    2.5149   -2.4092   17.7424 Cl  0  0  0  0  0  0  0  0  0  0  0  0
    0.7704   -2.1273   27.7998 N   0  0  0  0  0  0  0  0  0  0  0  0
    0.4880   -0.5850   28.3440 S   0  0  0  0  0  0  0  0  0  0  0  0
   -0.9003   -0.2274   28.1977 O   0  0  0  0  0  0  0  0  0  0  0  0
    1.5511    0.2255   27.8021 O   0  0  0  0  0  0  0  0  0  0  0  0
    0.8341   -0.7450   29.9870 N   0  0  0  0  0  0  0  0  0  0  0  0
    0.5663    0.5066   30.7709 C   0  0  0  0  0  0  0  0  0  0  0  0
    1.8742    1.1917   31.1738 C   0  0  0  0  0  0  0  0  0  0  0  0
    2.6874    0.3755   32.0308 O   0  0  0  0  0  0  0  0  0  0  0  0
    2.5486   -1.0280   31.7655 C   0  0  0  0  0  0  0  0  0  0  0  0
    2.1682   -1.3359   30.3147 C   0  0  0  0  0  0  0  0  0  0  0  0
   -0.8892   -3.4001   30.0442 N   0  0  0  0  0  0  0  0  0  0  0  0
   -2.3465   -2.6489   32.7500 H   0  0  0  0  0  0  0  0  0  0  0  0
   -0.6695   -2.0602   32.8843 H   0  0  0  0  0  0  0  0  0  0  0  0
   -1.7003   -1.5470   31.5318 H   0  0  0  0  0  0  0  0  0  0  0  0
   -0.7855   -4.9039   33.0725 H   0  0  0  0  0  0  0  0  0  0  0  0
   -0.0355   -7.5280   30.8120 H   0  0  0  0  0  0  0  0  0  0  0  0
   -1.1928   -4.8960   27.3509 H   0  0  0  0  0  0  0  0  0  0  0  0
    0.4489   -5.0211   27.6031 H   0  0  0  0  0  0  0  0  0  0  0  0
   -1.2245   -2.4327   27.2839 H   0  0  0  0  0  0  0  0  0  0  0  0
    0.6350   -1.8649   25.7120 H   0  0  0  0  0  0  0  0  0  0  0  0
   -0.2391   -4.0364   24.2306 H   0  0  0  0  0  0  0  0  0  0  0  0
    2.3663   -5.1160   25.4775 H   0  0  0  0  0  0  0  0  0  0  0  0
    1.5709   -4.2503   26.6635 H   0  0  0  0  0  0  0  0  0  0  0  0
    6.0149   -1.7414   26.7188 H   0  0  0  0  0  0  0  0  0  0  0  0
    5.0554   -1.2769   24.3069 H   0  0  0  0  0  0  0  0  0  0  0  0
    2.5154   -3.7441   23.3195 H   0  0  0  0  0  0  0  0  0  0  0  0
    1.9779   -2.0381   24.2602 H   0  0  0  0  0  0  0  0  0  0  0  0
    0.4789   -2.2291   18.6747 H   0  0  0  0  0  0  0  0  0  0  0  0
    1.5643   -0.6470   17.3250 H   0  0  0  0  0  0  0  0  0  0  0  0
    1.7455   -2.2594   27.5528 H   0  0  0  0  0  0  0  0  0  0  0  0
    0.0042    0.2185   31.6660 H   0  0  0  0  0  0  0  0  0  0  0  0
   -0.0615    1.2065   30.2105 H   0  0  0  0  0  0  0  0  0  0  0  0
    1.6621    2.1191   31.7152 H   0  0  0  0  0  0  0  0  0  0  0  0
    2.4688    1.4560   30.2920 H   0  0  0  0  0  0  0  0  0  0  0  0
    3.5025   -1.5035   32.0148 H   0  0  0  0  0  0  0  0  0  0  0  0
    1.7959   -1.4259   32.4556 H   0  0  0  0  0  0  0  0  0  0  0  0
    2.1197   -2.4209   30.1792 H   0  0  0  0  0  0  0  0  0  0  0  0
    2.9383   -0.9286   29.6504 H   0  0  0  0  0  0  0  0  0  0  0  0
  1  2  1  0
  2  3  2  0
  3  4  1  0
  4  5  1  0
  4  6  2  0
  6  7  1  0
  7  8  1  0
  8  9  1  0
  9 10  1  0
 10 11  1  0
 11 12  1  0
 12 13  1  0
 13 14  1  0
 14 15  1  0
 15 16  2  0
 16 17  1  0
 17 18  1  0
 18 19  1  0
 19 20  1  0
 20 21  2  0
 20 22  1  0
 22 23  1  0
 22 24  1  0
  9 25  1  0
 25 26  1  0
 26 27  2  0
 26 28  2  0
 26 29  1  0
 29 30  1  0
 30 31  1  0
 31 32  1  0
 32 33  1  0
 33 34  1  0
  7 35  2  0
 35  2  1  0
 19 11  1  0
 34 29  1  0
 17 13  2  0
  1 36  1  0
  1 37  1  0
  1 38  1  0
  3 39  1  0
  5 40  1  0
  8 41  1  0
  8 42  1  0
  9 43  1  0
 10 44  1  0
 11 45  1  0
 12 46  1  0
 12 47  1  0
 15 48  1  0
 16 49  1  0
 18 50  1  0
 18 51  1  0
 22 52  1  0
 23 53  1  0
 25 54  1  0
 30 55  1  0
 30 56  1  0
 31 57  1  0
 31 58  1  0
 33 59  1  0
 33 60  1  0
 34 61  1  0
 34 62  1  0
M  END
>  <Energy>  (545) 
421.8226653072648

>  <compound_id>  (545) 
350

>  <target_id>  (545) 
1

>  <reference_id>  (545) 
177

>  <inspiration_ids>  (545) 
[177, 188]

>  <energy_score>  (545) 
523.6148264967096

>  <distance_score>  (545) 
5.324301864216638

>  <path>  (545) 
/opt/xchem-fragalysis-2/maxwin/BulkDock/SCRATCH/505736/C350-P177/C350-P177.minimised.mol

>  <scratch_subdir>  (545) 
/opt/xchem-fragalysis-2/maxwin/BulkDock/SCRATCH/505736/C350-P177

>  <fragmenstein_runtime>  (545) 
12.607916355133057

>  <fragmenstein_outcome>  (545) 
too moved

>  <fragmenstein_mode>  (545) 
expansion

>  <fragmenstein_error>  (545) 


$$$$
C350-P188
     RDKit          3D

 62 65  0  0  0  0  0  0  0  0999 V2000
   -0.0510   -6.1814   35.3799 C   0  0  0  0  0  0  0  0  0  0  0  0
   -0.0876   -6.3976   33.8972 C   0  0  0  0  0  0  0  0  0  0  0  0
   -0.9837   -7.2877   33.3500 C   0  0  0  0  0  0  0  0  0  0  0  0
   -0.9431   -7.4141   31.9832 C   0  0  0  0  0  0  0  0  0  0  0  0
   -1.7888   -8.2788   31.3415 O   0  0  0  0  0  0  0  0  0  0  0  0
   -0.1023   -6.7405   31.1845 N   0  0  0  0  0  0  0  0  0  0  0  0
    0.7181   -5.8711   31.8058 C   0  0  0  0  0  0  0  0  0  0  0  0
    1.7390   -5.1413   30.9752 C   0  0  0  0  0  0  0  0  0  0  0  0
    1.1503   -4.1512   29.9663 C   0  0  0  0  0  0  0  0  0  0  0  0
    2.1167   -3.7137   28.9329 N   0  0  0  0  0  0  0  0  0  0  0  0
    2.6816   -4.7618   28.0296 C   0  0  0  0  0  0  0  0  0  0  0  0
    4.0614   -5.4359   28.3132 C   0  0  0  0  0  0  0  0  0  0  0  0
    5.0658   -4.5766   27.7192 C   0  0  0  0  0  0  0  0  0  0  0  0
    6.7205   -4.5967   27.9986 S   0  0  0  0  0  0  0  0  0  0  0  0
    6.9240   -3.2246   26.9867 C   0  0  0  0  0  0  0  0  0  0  0  0
    5.7229   -2.7828   26.4681 C   0  0  0  0  0  0  0  0  0  0  0  0
    4.6404   -3.6135   26.8663 C   0  0  0  0  0  0  0  0  0  0  0  0
    3.1893   -3.4556   26.5397 C   0  0  0  0  0  0  0  0  0  0  0  0
    2.0777   -4.6209   26.6591 N   0  0  0  0  0  0  0  0  0  0  0  0
    2.1424   -5.4896   25.4977 C   0  0  0  0  0  0  0  0  0  0  0  0
    2.7835   -6.5058   25.3167 O   0  0  0  0  0  0  0  0  0  0  0  0
    0.8024   -4.9076   24.0592 C   0  0  0  0  0  0  0  0  0  0  0  0
    1.4607   -3.3402   22.9195 S   0  0  0  0  0  0  0  0  0  0  0  0
    0.6899   -5.2703   22.2796 Cl  0  0  0  0  0  0  0  0  0  0  0  0
    0.8381   -2.9168   30.6785 N   0  0  0  0  0  0  0  0  0  0  0  0
   -0.7461   -2.5594   31.0349 S   0  0  0  0  0  0  0  0  0  0  0  0
   -1.5216   -3.7710   31.1326 O   0  0  0  0  0  0  0  0  0  0  0  0
   -1.1288   -1.4722   30.1705 O   0  0  0  0  0  0  0  0  0  0  0  0
   -0.5468   -1.9456   32.5869 N   0  0  0  0  0  0  0  0  0  0  0  0
   -1.8201   -1.8074   33.3687 C   0  0  0  0  0  0  0  0  0  0  0  0
   -2.2119   -0.3351   33.5096 C   0  0  0  0  0  0  0  0  0  0  0  0
   -1.2375    0.4450   34.2201 O   0  0  0  0  0  0  0  0  0  0  0  0
    0.0979   -0.0581   34.0707 C   0  0  0  0  0  0  0  0  0  0  0  0
    0.3315   -0.7445   32.7212 C   0  0  0  0  0  0  0  0  0  0  0  0
    0.7849   -5.7023   33.1416 N   0  0  0  0  0  0  0  0  0  0  0  0
    0.1791   -7.1202   35.8935 H   0  0  0  0  0  0  0  0  0  0  0  0
    0.7167   -5.4483   35.6475 H   0  0  0  0  0  0  0  0  0  0  0  0
   -1.0175   -5.8068   35.7315 H   0  0  0  0  0  0  0  0  0  0  0  0
   -1.6590   -7.8571   33.9721 H   0  0  0  0  0  0  0  0  0  0  0  0
   -2.3640   -8.6923   32.0128 H   0  0  0  0  0  0  0  0  0  0  0  0
    2.2910   -5.9104   30.4456 H   0  0  0  0  0  0  0  0  0  0  0  0
    2.4619   -4.6416   31.6335 H   0  0  0  0  0  0  0  0  0  0  0  0
    0.2672   -4.5597   29.4634 H   0  0  0  0  0  0  0  0  0  0  0  0
    1.5349   -3.1190   28.3395 H   0  0  0  0  0  0  0  0  0  0  0  0
    2.0721   -5.6326   28.3115 H   0  0  0  0  0  0  0  0  0  0  0  0
    4.0978   -6.4330   27.8622 H   0  0  0  0  0  0  0  0  0  0  0  0
    4.2225   -5.5321   29.3865 H   0  0  0  0  0  0  0  0  0  0  0  0
    7.9110   -2.8159   26.8178 H   0  0  0  0  0  0  0  0  0  0  0  0
    5.6333   -1.9137   25.8279 H   0  0  0  0  0  0  0  0  0  0  0  0
    3.2953   -3.3700   25.4560 H   0  0  0  0  0  0  0  0  0  0  0  0
    2.8170   -2.5107   26.9536 H   0  0  0  0  0  0  0  0  0  0  0  0
   -0.2459   -4.8828   24.3080 H   0  0  0  0  0  0  0  0  0  0  0  0
    0.3298   -2.6308   22.8387 H   0  0  0  0  0  0  0  0  0  0  0  0
    1.3240   -2.1126   30.2933 H   0  0  0  0  0  0  0  0  0  0  0  0
   -1.6467   -2.2547   34.3545 H   0  0  0  0  0  0  0  0  0  0  0  0
   -2.6414   -2.3583   32.9011 H   0  0  0  0  0  0  0  0  0  0  0  0
   -3.1596   -0.2440   34.0493 H   0  0  0  0  0  0  0  0  0  0  0  0
   -2.3491    0.1185   32.5227 H   0  0  0  0  0  0  0  0  0  0  0  0
    0.7809    0.7894   34.1866 H   0  0  0  0  0  0  0  0  0  0  0  0
    0.2924   -0.7508   34.8979 H   0  0  0  0  0  0  0  0  0  0  0  0
    1.3775   -1.0598   32.6535 H   0  0  0  0  0  0  0  0  0  0  0  0
    0.1209   -0.0311   31.9167 H   0  0  0  0  0  0  0  0  0  0  0  0
  1  2  1  0
  2  3  2  0
  3  4  1  0
  4  5  1  0
  4  6  2  0
  6  7  1  0
  7  8  1  0
  8  9  1  0
  9 10  1  0
 10 11  1  0
 11 12  1  0
 12 13  1  0
 13 14  1  0
 14 15  1  0
 15 16  2  0
 16 17  1  0
 17 18  1  0
 18 19  1  0
 19 20  1  0
 20 21  2  0
 20 22  1  0
 22 23  1  0
 22 24  1  0
  9 25  1  0
 25 26  1  0
 26 27  2  0
 26 28  2  0
 26 29  1  0
 29 30  1  0
 30 31  1  0
 31 32  1  0
 32 33  1  0
 33 34  1  0
  7 35  2  0
 35  2  1  0
 19 11  1  0
 34 29  1  0
 17 13  2  0
  1 36  1  0
  1 37  1  0
  1 38  1  0
  3 39  1  0
  5 40  1  0
  8 41  1  0
  8 42  1  0
  9 43  1  0
 10 44  1  0
 11 45  1  0
 12 46  1  0
 12 47  1  0
 15 48  1  0
 16 49  1  0
 18 50  1  0
 18 51  1  0
 22 52  1  0
 23 53  1  0
 25 54  1  0
 30 55  1  0
 30 56  1  0
 31 57  1  0
 31 58  1  0
 33 59  1  0
 33 60  1  0
 34 61  1  0
 34 62  1  0
M  END
>  <Energy>  (546) 
35.060153550283644

>  <compound_id>  (546) 
350

>  <target_id>  (546) 
1

>  <reference_id>  (546) 
188

>  <inspiration_ids>  (546) 
[177, 188]

>  <energy_score>  (546) 
136.8523147397242

>  <distance_score>  (546) 
4.952761391256463

>  <path>  (546) 
/opt/xchem-fragalysis-2/maxwin/BulkDock/SCRATCH/505736/C350-P188/C350-P188.minimised.mol

>  <scratch_subdir>  (546) 
/opt/xchem-fragalysis-2/maxwin/BulkDock/SCRATCH/505736/C350-P188

>  <fragmenstein_runtime>  (546) 
13.114410400390625

>  <fragmenstein_outcome>  (546) 
too moved

>  <fragmenstein_mode>  (546) 
expansion

>  <fragmenstein_error>  (546) 


$$$$
C2662-P177
     RDKit          3D

 40 42  0  0  0  0  0  0  0  0999 V2000
   -0.7257   -3.8686   26.0517 O   0  0  0  0  0  0  0  0  0  0  0  0
    0.0222   -3.1280   26.5667 C   0  0  0  0  0  0  0  0  0  0  0  0
    1.3779   -2.7867   25.9599 C   0  0  0  0  0  0  0  0  0  0  0  0
    2.4645   -4.1426   26.3618 Cl  0  0  0  0  0  0  0  0  0  0  0  0
   -0.0559   -2.4377   27.8954 N   0  0  0  0  0  0  0  0  0  0  0  0
   -0.7527   -1.0746   27.7726 C   0  0  0  0  0  0  0  0  0  0  0  0
   -0.4907   -0.1124   28.8819 C   0  0  0  0  0  0  0  0  0  0  0  0
   -0.2510    1.2764   28.8369 C   0  0  0  0  0  0  0  0  0  0  0  0
    0.0901    1.7786   30.0724 C   0  0  0  0  0  0  0  0  0  0  0  0
    0.0133    0.5873   31.2966 S   0  0  0  0  0  0  0  0  0  0  0  0
   -0.3764   -0.5889   30.1594 C   0  0  0  0  0  0  0  0  0  0  0  0
   -0.4425   -2.0488   30.3454 C   0  0  0  0  0  0  0  0  0  0  0  0
   -1.3002   -2.5593   31.8450 S   0  0  0  0  0  0  0  0  0  0  0  0
   -2.2462   -3.6655   31.5133 O   0  0  0  0  0  0  0  0  0  0  0  0
    0.1034   -3.0763   32.5811 N   0  0  0  0  0  0  0  0  0  0  0  0
    0.5716   -4.4589   32.5812 C   0  0  0  0  0  0  0  0  0  0  0  0
    0.5419   -5.2657   31.2735 C   0  0  0  0  0  0  0  0  0  0  0  0
   -0.2330   -6.5323   31.6100 C   0  0  0  0  0  0  0  0  0  0  0  0
    0.0275   -6.7390   33.0899 C   0  0  0  0  0  0  0  0  0  0  0  0
   -0.1169   -5.3342   33.6389 C   0  0  0  0  0  0  0  0  0  0  0  0
   -1.0761   -2.5660   29.0255 C   0  0  0  0  0  0  0  0  0  0  0  0
    1.2973   -2.7028   24.8743 H   0  0  0  0  0  0  0  0  0  0  0  0
    1.8093   -1.8787   26.3835 H   0  0  0  0  0  0  0  0  0  0  0  0
   -0.2342   -0.6366   26.9180 H   0  0  0  0  0  0  0  0  0  0  0  0
   -1.7908   -1.1171   27.4024 H   0  0  0  0  0  0  0  0  0  0  0  0
   -0.2346    1.8836   27.9504 H   0  0  0  0  0  0  0  0  0  0  0  0
    0.3793    2.7941   30.3111 H   0  0  0  0  0  0  0  0  0  0  0  0
    0.5918   -2.4193   30.3737 H   0  0  0  0  0  0  0  0  0  0  0  0
    0.2226   -2.7135   33.5268 H   0  0  0  0  0  0  0  0  0  0  0  0
    1.6308   -4.3976   32.8691 H   0  0  0  0  0  0  0  0  0  0  0  0
    0.0955   -4.7594   30.4226 H   0  0  0  0  0  0  0  0  0  0  0  0
    1.5705   -5.5035   30.9835 H   0  0  0  0  0  0  0  0  0  0  0  0
   -1.3028   -6.3685   31.4485 H   0  0  0  0  0  0  0  0  0  0  0  0
    0.0533   -7.3849   30.9957 H   0  0  0  0  0  0  0  0  0  0  0  0
    1.0439   -7.1083   33.2611 H   0  0  0  0  0  0  0  0  0  0  0  0
   -0.6815   -7.4365   33.5439 H   0  0  0  0  0  0  0  0  0  0  0  0
    0.3374   -5.2249   34.6287 H   0  0  0  0  0  0  0  0  0  0  0  0
   -1.1774   -5.0859   33.7293 H   0  0  0  0  0  0  0  0  0  0  0  0
   -2.1345   -2.3209   28.8485 H   0  0  0  0  0  0  0  0  0  0  0  0
   -1.1430   -3.6582   29.1155 H   0  0  0  0  0  0  0  0  0  0  0  0
  1  2  2  0
  2  3  1  0
  3  4  1  0
  2  5  1  0
  5  6  1  0
  6  7  1  0
  7  8  1  0
  8  9  2  0
  9 10  1  0
 10 11  1  0
 11 12  1  0
 12 13  1  0
 13 14  2  0
 13 15  1  0
 15 16  1  0
 16 17  1  0
 17 18  1  0
 18 19  1  0
 19 20  1  0
 12 21  1  0
 21  5  1  0
 11  7  2  0
 20 16  1  0
  3 22  1  0
  3 23  1  0
  6 24  1  0
  6 25  1  0
  8 26  1  0
  9 27  1  0
 12 28  1  0
 15 29  1  0
 16 30  1  0
 17 31  1  0
 17 32  1  0
 18 33  1  0
 18 34  1  0
 19 35  1  0
 19 36  1  0
 20 37  1  0
 20 38  1  0
 21 39  1  0
 21 40  1  0
M  END
>  <Energy>  (547) 
144.2762470039724

>  <compound_id>  (547) 
2662

>  <target_id>  (547) 
1

>  <reference_id>  (547) 
177

>  <inspiration_ids>  (547) 
[177, 189]

>  <energy_score>  (547) 
38.40465583418137

>  <distance_score>  (547) 
2.1862671827703797

>  <path>  (547) 
/opt/xchem-fragalysis-2/maxwin/BulkDock/SCRATCH/505736/C2662-P177/C2662-P177.minimised.mol

>  <scratch_subdir>  (547) 
/opt/xchem-fragalysis-2/maxwin/BulkDock/SCRATCH/505736/C2662-P177

>  <fragmenstein_runtime>  (547) 
10.595116138458252

>  <fragmenstein_outcome>  (547) 
too moved

>  <fragmenstein_mode>  (547) 
expansion

>  <fragmenstein_error>  (547) 


$$$$
C2662-P189
     RDKit          3D

 40 42  0  0  0  0  0  0  0  0999 V2000
    0.7375   -5.1994   28.8993 O   0  0  0  0  0  0  0  0  0  0  0  0
    0.1708   -4.2541   28.4225 C   0  0  0  0  0  0  0  0  0  0  0  0
   -1.1149   -4.3634   27.5222 C   0  0  0  0  0  0  0  0  0  0  0  0
   -1.7055   -5.4231   25.5350 Cl  0  0  0  0  0  0  0  0  0  0  0  0
    0.3976   -2.8558   28.5942 N   0  0  0  0  0  0  0  0  0  0  0  0
   -0.4360   -2.3383   29.7252 C   0  0  0  0  0  0  0  0  0  0  0  0
   -0.7705   -0.9111   29.3818 C   0  0  0  0  0  0  0  0  0  0  0  0
   -1.8637   -0.2808   28.7392 C   0  0  0  0  0  0  0  0  0  0  0  0
   -1.6204    1.0685   28.5462 C   0  0  0  0  0  0  0  0  0  0  0  0
   -0.0439    1.5279   29.0727 S   0  0  0  0  0  0  0  0  0  0  0  0
    0.2616   -0.0384   29.5692 C   0  0  0  0  0  0  0  0  0  0  0  0
    1.5059   -0.6542   30.0627 C   0  0  0  0  0  0  0  0  0  0  0  0
    1.4277   -0.7172   31.9616 S   0  0  0  0  0  0  0  0  0  0  0  0
   -0.0072   -0.7206   32.3985 O   0  0  0  0  0  0  0  0  0  0  0  0
    2.1608   -2.2065   32.1796 N   0  0  0  0  0  0  0  0  0  0  0  0
    1.8482   -3.0266   33.3649 C   0  0  0  0  0  0  0  0  0  0  0  0
    2.7124   -4.2964   33.3487 C   0  0  0  0  0  0  0  0  0  0  0  0
    1.9801   -5.2562   32.4179 C   0  0  0  0  0  0  0  0  0  0  0  0
    0.5023   -4.9207   32.5676 C   0  0  0  0  0  0  0  0  0  0  0  0
    0.4447   -3.6515   33.4136 C   0  0  0  0  0  0  0  0  0  0  0  0
    1.5362   -2.0875   29.3693 C   0  0  0  0  0  0  0  0  0  0  0  0
   -1.6749   -5.0000   28.2011 H   0  0  0  0  0  0  0  0  0  0  0  0
   -1.5224   -3.3417   27.4804 H   0  0  0  0  0  0  0  0  0  0  0  0
   -1.4015   -2.8667   29.6772 H   0  0  0  0  0  0  0  0  0  0  0  0
   -0.1130   -2.6109   30.7316 H   0  0  0  0  0  0  0  0  0  0  0  0
   -2.7598   -0.7780   28.3924 H   0  0  0  0  0  0  0  0  0  0  0  0
   -2.2700    1.8034   28.0877 H   0  0  0  0  0  0  0  0  0  0  0  0
    2.4137   -0.0918   29.8232 H   0  0  0  0  0  0  0  0  0  0  0  0
    3.1765   -2.1793   32.0892 H   0  0  0  0  0  0  0  0  0  0  0  0
    2.0529   -2.4429   34.2697 H   0  0  0  0  0  0  0  0  0  0  0  0
    3.7467   -4.1243   33.0329 H   0  0  0  0  0  0  0  0  0  0  0  0
    2.7515   -4.7245   34.3589 H   0  0  0  0  0  0  0  0  0  0  0  0
    2.2983   -5.1012   31.3810 H   0  0  0  0  0  0  0  0  0  0  0  0
    2.1825   -6.2980   32.6781 H   0  0  0  0  0  0  0  0  0  0  0  0
   -0.0450   -5.7344   33.0560 H   0  0  0  0  0  0  0  0  0  0  0  0
    0.0431   -4.7693   31.5867 H   0  0  0  0  0  0  0  0  0  0  0  0
    0.2212   -3.9307   34.4522 H   0  0  0  0  0  0  0  0  0  0  0  0
   -0.3656   -2.9931   33.0970 H   0  0  0  0  0  0  0  0  0  0  0  0
    2.2404   -1.9443   28.5327 H   0  0  0  0  0  0  0  0  0  0  0  0
    2.0567   -2.8511   29.9587 H   0  0  0  0  0  0  0  0  0  0  0  0
  1  2  2  0
  2  3  1  0
  3  4  1  0
  2  5  1  0
  5  6  1  0
  6  7  1  0
  7  8  1  0
  8  9  2  0
  9 10  1  0
 10 11  1  0
 11 12  1  0
 12 13  1  0
 13 14  2  0
 13 15  1  0
 15 16  1  0
 16 17  1  0
 17 18  1  0
 18 19  1  0
 19 20  1  0
 12 21  1  0
 21  5  1  0
 11  7  2  0
 20 16  1  0
  3 22  1  0
  3 23  1  0
  6 24  1  0
  6 25  1  0
  8 26  1  0
  9 27  1  0
 12 28  1  0
 15 29  1  0
 16 30  1  0
 17 31  1  0
 17 32  1  0
 18 33  1  0
 18 34  1  0
 19 35  1  0
 19 36  1  0
 20 37  1  0
 20 38  1  0
 21 39  1  0
 21 40  1  0
M  END
>  <Energy>  (548) 
227.18240802275372

>  <compound_id>  (548) 
2662

>  <target_id>  (548) 
1

>  <reference_id>  (548) 
189

>  <inspiration_ids>  (548) 
[177, 189]

>  <energy_score>  (548) 
121.92991650308011

>  <distance_score>  (548) 
2.9263115641260646

>  <path>  (548) 
/opt/xchem-fragalysis-2/maxwin/BulkDock/SCRATCH/505736/C2662-P189/C2662-P189.minimised.mol

>  <scratch_subdir>  (548) 
/opt/xchem-fragalysis-2/maxwin/BulkDock/SCRATCH/505736/C2662-P189

>  <fragmenstein_runtime>  (548) 
12.053501844406128

>  <fragmenstein_outcome>  (548) 
too moved

>  <fragmenstein_mode>  (548) 
expansion

>  <fragmenstein_error>  (548) 


$$$$
C2664-P177
     RDKit          3D

 54 57  0  0  0  0  0  0  0  0999 V2000
    2.3038   -5.4345   31.4861 O   0  0  0  0  0  0  0  0  0  0  0  0
    1.0582   -5.9333   31.3366 N   0  0  0  0  0  0  0  0  0  0  0  0
    0.6936   -5.6286   29.8847 N   0  0  0  0  0  0  0  0  0  0  0  0
    0.7056   -4.1814   29.5342 C   0  0  0  0  0  0  0  0  0  0  0  0
    2.1140   -3.5394   29.4494 C   0  0  0  0  0  0  0  0  0  0  0  0
    2.1376   -2.3926   28.4413 C   0  0  0  0  0  0  0  0  0  0  0  0
    1.7721   -2.8827   27.0382 C   0  0  0  0  0  0  0  0  0  0  0  0
    0.8932   -4.0570   27.0415 N   0  0  0  0  0  0  0  0  0  0  0  0
   -0.0294   -4.0263   28.1757 C   0  0  0  0  0  0  0  0  0  0  0  0
    1.1700   -7.4894   31.6384 C   0  0  0  0  0  0  0  0  0  0  0  0
    2.3659   -7.6467   33.1505 C   0  0  0  0  0  0  0  0  0  0  0  0
    3.7915   -8.9270   33.3749 C   0  0  0  0  0  0  0  0  0  0  0  0
    3.6995  -10.2222   31.9333 C   0  0  0  0  0  0  0  0  0  0  0  0
    4.5727  -11.2464   32.0079 F   0  0  0  0  0  0  0  0  0  0  0  0
    2.4035  -10.3670   30.4116 C   0  0  0  0  0  0  0  0  0  0  0  0
    1.1503   -8.6868   30.0722 C   0  0  0  0  0  0  0  0  0  0  0  0
    0.1715   -5.2695   32.3033 C   0  0  0  0  0  0  0  0  0  0  0  0
    0.6290   -4.3219   33.2208 C   0  0  0  0  0  0  0  0  0  0  0  0
   -0.1638   -3.2164   33.4865 C   0  0  0  0  0  0  0  0  0  0  0  0
   -1.3502   -3.0811   32.7742 C   0  0  0  0  0  0  0  0  0  0  0  0
   -1.9097   -1.8391   32.4810 N   0  0  0  0  0  0  0  0  0  0  0  0
   -1.3903   -1.4162   31.1547 C   0  0  0  0  0  0  0  0  0  0  0  0
   -1.6346    0.0722   30.9409 C   0  0  0  0  0  0  0  0  0  0  0  0
   -0.9887    0.9001   31.9211 O   0  0  0  0  0  0  0  0  0  0  0  0
   -0.7807    0.2518   33.1821 C   0  0  0  0  0  0  0  0  0  0  0  0
   -1.8575   -0.7908   33.5087 C   0  0  0  0  0  0  0  0  0  0  0  0
   -1.8733   -4.1171   32.0848 N   0  0  0  0  0  0  0  0  0  0  0  0
   -1.1417   -5.2326   31.9613 C   0  0  0  0  0  0  0  0  0  0  0  0
    1.4471   -5.9941   29.3133 H   0  0  0  0  0  0  0  0  0  0  0  0
    0.1168   -3.6143   30.2513 H   0  0  0  0  0  0  0  0  0  0  0  0
    2.8651   -4.2798   29.1467 H   0  0  0  0  0  0  0  0  0  0  0  0
    2.4128   -3.1610   30.4335 H   0  0  0  0  0  0  0  0  0  0  0  0
    1.4262   -1.6201   28.7605 H   0  0  0  0  0  0  0  0  0  0  0  0
    3.1285   -1.9253   28.4238 H   0  0  0  0  0  0  0  0  0  0  0  0
    1.2901   -2.0709   26.4851 H   0  0  0  0  0  0  0  0  0  0  0  0
    2.6831   -3.1362   26.4836 H   0  0  0  0  0  0  0  0  0  0  0  0
    1.4818   -4.8880   27.1064 H   0  0  0  0  0  0  0  0  0  0  0  0
   -0.6013   -3.0892   28.1633 H   0  0  0  0  0  0  0  0  0  0  0  0
   -0.7680   -4.8251   28.0482 H   0  0  0  0  0  0  0  0  0  0  0  0
    2.4237   -6.7720   33.8098 H   0  0  0  0  0  0  0  0  0  0  0  0
    4.5386   -8.9088   34.1547 H   0  0  0  0  0  0  0  0  0  0  0  0
    2.2005  -11.4746   30.2633 H   0  0  0  0  0  0  0  0  0  0  0  0
    0.3914   -8.6006   29.2757 H   0  0  0  0  0  0  0  0  0  0  0  0
    1.6660   -4.3149   33.5489 H   0  0  0  0  0  0  0  0  0  0  0  0
    0.2571   -2.4027   34.0634 H   0  0  0  0  0  0  0  0  0  0  0  0
   -1.8768   -1.9906   30.3587 H   0  0  0  0  0  0  0  0  0  0  0  0
   -0.3062   -1.5808   31.0913 H   0  0  0  0  0  0  0  0  0  0  0  0
   -1.2753    0.3849   29.9554 H   0  0  0  0  0  0  0  0  0  0  0  0
   -2.7057    0.2809   30.9824 H   0  0  0  0  0  0  0  0  0  0  0  0
   -0.7697    1.0313   33.9505 H   0  0  0  0  0  0  0  0  0  0  0  0
    0.2174   -0.1988   33.1633 H   0  0  0  0  0  0  0  0  0  0  0  0
   -2.8353   -0.2929   33.5079 H   0  0  0  0  0  0  0  0  0  0  0  0
   -1.7198   -1.1977   34.5173 H   0  0  0  0  0  0  0  0  0  0  0  0
   -1.5617   -6.0292   31.3621 H   0  0  0  0  0  0  0  0  0  0  0  0
  1  2  1  0
  2  3  1  0
  3  4  1  0
  4  5  1  0
  5  6  1  0
  6  7  1  0
  7  8  1  0
  8  9  1  0
  2 10  1  0
 10 11  2  0
 11 12  1  0
 12 13  2  0
 13 14  1  0
 13 15  1  0
 15 16  2  0
  2 17  1  0
 17 18  2  0
 18 19  1  0
 19 20  2  0
 20 21  1  0
 21 22  1  0
 22 23  1  0
 23 24  1  0
 24 25  1  0
 25 26  1  0
 20 27  1  0
 27 28  2  0
  9  4  1  0
 16 10  1  0
 28 17  1  0
 26 21  1  0
  3 29  1  0
  4 30  1  0
  5 31  1  0
  5 32  1  0
  6 33  1  0
  6 34  1  0
  7 35  1  0
  7 36  1  0
  8 37  1  0
  9 38  1  0
  9 39  1  0
 11 40  1  0
 12 41  1  0
 15 42  1  0
 16 43  1  0
 18 44  1  0
 19 45  1  0
 22 46  1  0
 22 47  1  0
 23 48  1  0
 23 49  1  0
 25 50  1  0
 25 51  1  0
 26 52  1  0
 26 53  1  0
 28 54  1  0
M  CHG  2   1  -1   2   1
M  END
>  <Energy>  (549) 
756.76517937531264

>  <compound_id>  (549) 
2664

>  <target_id>  (549) 
1

>  <reference_id>  (549) 
177

>  <inspiration_ids>  (549) 
[177, 196]

>  <energy_score>  (549) 
604.9632622097864

>  <distance_score>  (549) 
2.98823186145305

>  <path>  (549) 
/opt/xchem-fragalysis-2/maxwin/BulkDock/SCRATCH/505736/C2664-P177/C2664-P177.minimised.mol

>  <scratch_subdir>  (549) 
/opt/xchem-fragalysis-2/maxwin/BulkDock/SCRATCH/505736/C2664-P177

>  <fragmenstein_runtime>  (549) 
12.686324119567871

>  <fragmenstein_outcome>  (549) 
too moved

>  <fragmenstein_mode>  (549) 
expansion

>  <fragmenstein_error>  (549) 


$$$$
C2664-P196
     RDKit          3D

 54 57  0  0  0  0  0  0  0  0999 V2000
    2.3684   -5.9099   31.6268 O   0  0  0  0  0  0  0  0  0  0  0  0
    1.0967   -6.3421   31.6551 N   0  0  0  0  0  0  0  0  0  0  0  0
    0.6149   -6.0643   30.2389 N   0  0  0  0  0  0  0  0  0  0  0  0
    0.9821   -4.6462   29.8289 C   0  0  0  0  0  0  0  0  0  0  0  0
    2.1529   -4.6422   28.8105 C   0  0  0  0  0  0  0  0  0  0  0  0
    2.0839   -3.4812   27.8163 C   0  0  0  0  0  0  0  0  0  0  0  0
    1.4733   -2.2359   28.4420 C   0  0  0  0  0  0  0  0  0  0  0  0
    0.1198   -2.4358   28.9558 N   0  0  0  0  0  0  0  0  0  0  0  0
   -0.2118   -3.8279   29.2865 C   0  0  0  0  0  0  0  0  0  0  0  0
    1.2071   -7.8637   32.0263 C   0  0  0  0  0  0  0  0  0  0  0  0
    1.8736   -8.0357   33.8299 C   0  0  0  0  0  0  0  0  0  0  0  0
    3.2805   -9.3037   34.3011 C   0  0  0  0  0  0  0  0  0  0  0  0
    3.7983  -10.4813   32.8427 C   0  0  0  0  0  0  0  0  0  0  0  0
    4.7240  -11.4164   33.1541 F   0  0  0  0  0  0  0  0  0  0  0  0
    2.9026  -10.6846   31.1191 C   0  0  0  0  0  0  0  0  0  0  0  0
    1.6808   -9.0287   30.5277 C   0  0  0  0  0  0  0  0  0  0  0  0
    0.3774   -5.5323   32.6689 C   0  0  0  0  0  0  0  0  0  0  0  0
    1.0806   -4.7643   33.6086 C   0  0  0  0  0  0  0  0  0  0  0  0
    0.5248   -3.5921   34.0773 C   0  0  0  0  0  0  0  0  0  0  0  0
   -0.7094   -3.2090   33.5736 C   0  0  0  0  0  0  0  0  0  0  0  0
   -0.9944   -1.8231   33.6223 N   0  0  0  0  0  0  0  0  0  0  0  0
   -0.4362   -1.2406   32.3671 C   0  0  0  0  0  0  0  0  0  0  0  0
   -1.2272   -0.0044   31.9424 C   0  0  0  0  0  0  0  0  0  0  0  0
   -2.6267   -0.2510   31.7122 O   0  0  0  0  0  0  0  0  0  0  0  0
   -3.1339   -1.3746   32.4479 C   0  0  0  0  0  0  0  0  0  0  0  0
   -2.4311   -1.5528   33.7916 C   0  0  0  0  0  0  0  0  0  0  0  0
   -1.4764   -4.0368   32.8230 N   0  0  0  0  0  0  0  0  0  0  0  0
   -0.9347   -5.2049   32.4393 C   0  0  0  0  0  0  0  0  0  0  0  0
    1.2234   -6.6482   29.6826 H   0  0  0  0  0  0  0  0  0  0  0  0
    1.3295   -4.0693   30.6960 H   0  0  0  0  0  0  0  0  0  0  0  0
    2.2116   -5.5752   28.2390 H   0  0  0  0  0  0  0  0  0  0  0  0
    3.0970   -4.5848   29.3677 H   0  0  0  0  0  0  0  0  0  0  0  0
    3.0901   -3.2607   27.4415 H   0  0  0  0  0  0  0  0  0  0  0  0
    1.4885   -3.7767   26.9438 H   0  0  0  0  0  0  0  0  0  0  0  0
    2.1087   -1.8985   29.2697 H   0  0  0  0  0  0  0  0  0  0  0  0
    1.4619   -1.4199   27.7105 H   0  0  0  0  0  0  0  0  0  0  0  0
   -0.5651   -2.0977   28.2757 H   0  0  0  0  0  0  0  0  0  0  0  0
   -1.0214   -3.8047   30.0201 H   0  0  0  0  0  0  0  0  0  0  0  0
   -0.6301   -4.2910   28.3969 H   0  0  0  0  0  0  0  0  0  0  0  0
    1.7091   -7.2255   34.5416 H   0  0  0  0  0  0  0  0  0  0  0  0
    3.8475   -9.2378   35.2233 H   0  0  0  0  0  0  0  0  0  0  0  0
    2.8899  -11.6815   30.5726 H   0  0  0  0  0  0  0  0  0  0  0  0
    1.1145   -8.9543   29.5877 H   0  0  0  0  0  0  0  0  0  0  0  0
    2.1302   -4.9577   33.8197 H   0  0  0  0  0  0  0  0  0  0  0  0
    1.1093   -2.9028   34.6777 H   0  0  0  0  0  0  0  0  0  0  0  0
   -0.4774   -1.9566   31.5406 H   0  0  0  0  0  0  0  0  0  0  0  0
    0.6133   -0.9698   32.5310 H   0  0  0  0  0  0  0  0  0  0  0  0
   -1.1513    0.7678   32.7158 H   0  0  0  0  0  0  0  0  0  0  0  0
   -0.8119    0.4140   31.0201 H   0  0  0  0  0  0  0  0  0  0  0  0
   -3.0500   -2.2605   31.8110 H   0  0  0  0  0  0  0  0  0  0  0  0
   -4.2002   -1.1950   32.6163 H   0  0  0  0  0  0  0  0  0  0  0  0
   -2.9237   -2.3019   34.4143 H   0  0  0  0  0  0  0  0  0  0  0  0
   -2.5106   -0.6111   34.3503 H   0  0  0  0  0  0  0  0  0  0  0  0
   -1.5336   -5.8029   31.7670 H   0  0  0  0  0  0  0  0  0  0  0  0
  1  2  1  0
  2  3  1  0
  3  4  1  0
  4  5  1  0
  5  6  1  0
  6  7  1  0
  7  8  1  0
  8  9  1  0
  2 10  1  0
 10 11  2  0
 11 12  1  0
 12 13  2  0
 13 14  1  0
 13 15  1  0
 15 16  2  0
  2 17  1  0
 17 18  2  0
 18 19  1  0
 19 20  2  0
 20 21  1  0
 21 22  1  0
 22 23  1  0
 23 24  1  0
 24 25  1  0
 25 26  1  0
 20 27  1  0
 27 28  2  0
  9  4  1  0
 16 10  1  0
 28 17  1  0
 26 21  1  0
  3 29  1  0
  4 30  1  0
  5 31  1  0
  5 32  1  0
  6 33  1  0
  6 34  1  0
  7 35  1  0
  7 36  1  0
  8 37  1  0
  9 38  1  0
  9 39  1  0
 11 40  1  0
 12 41  1  0
 15 42  1  0
 16 43  1  0
 18 44  1  0
 19 45  1  0
 22 46  1  0
 22 47  1  0
 23 48  1  0
 23 49  1  0
 25 50  1  0
 25 51  1  0
 26 52  1  0
 26 53  1  0
 28 54  1  0
M  CHG  2   1  -1   2   1
M  END
>  <Energy>  (550) 
729.39847671900509

>  <compound_id>  (550) 
2664

>  <target_id>  (550) 
1

>  <reference_id>  (550) 
196

>  <inspiration_ids>  (550) 
[177, 196]

>  <energy_score>  (550) 
577.596559553484

>  <distance_score>  (550) 
3.0442594591703105

>  <path>  (550) 
/opt/xchem-fragalysis-2/maxwin/BulkDock/SCRATCH/505736/C2664-P196/C2664-P196.minimised.mol

>  <scratch_subdir>  (550) 
/opt/xchem-fragalysis-2/maxwin/BulkDock/SCRATCH/505736/C2664-P196

>  <fragmenstein_runtime>  (550) 
11.761777400970459

>  <fragmenstein_outcome>  (550) 
too moved

>  <fragmenstein_mode>  (550) 
expansion

>  <fragmenstein_error>  (550) 


$$$$
C394-P177
     RDKit          3D

 53 57  0  0  0  0  0  0  0  0999 V2000
   -2.5009   -2.4911   25.3315 N   0  0  0  0  0  0  0  0  0  0  0  0
   -1.1779   -2.7357   25.5684 C   0  0  0  0  0  0  0  0  0  0  0  0
   -0.2742   -2.8953   24.5899 C   0  0  0  0  0  0  0  0  0  0  0  0
    1.0674   -3.0296   24.8294 N   0  0  0  0  0  0  0  0  0  0  0  0
    1.5299   -3.4790   26.0532 C   0  0  0  0  0  0  0  0  0  0  0  0
    2.8233   -3.9622   26.0886 N   0  0  0  0  0  0  0  0  0  0  0  0
    3.3659   -4.8167   27.1437 C   0  0  0  0  0  0  0  0  0  0  0  0
    4.5013   -4.1045   27.9039 C   0  0  0  0  0  0  0  0  0  0  0  0
    4.3273   -2.6865   27.9568 O   0  0  0  0  0  0  0  0  0  0  0  0
    4.3289   -2.0953   26.6416 C   0  0  0  0  0  0  0  0  0  0  0  0
    3.8917   -3.0761   25.5486 C   0  0  0  0  0  0  0  0  0  0  0  0
    0.6344   -3.5023   27.0679 C   0  0  0  0  0  0  0  0  0  0  0  0
   -0.5890   -2.6887   26.9296 C   0  0  0  0  0  0  0  0  0  0  0  0
   -0.8992   -1.7058   27.8271 C   0  0  0  0  0  0  0  0  0  0  0  0
   -1.6983   -0.6235   27.4982 N   0  0  0  0  0  0  0  0  0  0  0  0
   -1.2833    0.5096   28.1839 C   0  0  0  0  0  0  0  0  0  0  0  0
   -1.8112    1.6048   28.2045 O   0  0  0  0  0  0  0  0  0  0  0  0
   -0.1666    0.1511   28.9261 N   0  0  0  0  0  0  0  0  0  0  0  0
   -0.2439   -1.2606   29.1442 C   0  0  0  0  0  0  0  0  0  0  0  0
    1.0360   -1.9655   29.5700 C   0  0  0  0  0  0  0  0  0  0  0  0
    0.4773   -3.2479   30.2538 C   0  0  0  0  0  0  0  0  0  0  0  0
    1.5342   -4.2210   30.6950 C   0  0  0  0  0  0  0  0  0  0  0  0
    0.9760   -5.2636   31.3605 F   0  0  0  0  0  0  0  0  0  0  0  0
    2.8206   -3.4927   31.6230 Cl  0  0  0  0  0  0  0  0  0  0  0  0
   -0.5413   -2.6047   31.1369 C   0  0  0  0  0  0  0  0  0  0  0  0
   -0.9931   -2.9333   32.3969 C   0  0  0  0  0  0  0  0  0  0  0  0
   -1.9296   -2.0836   32.9879 C   0  0  0  0  0  0  0  0  0  0  0  0
   -2.4027   -0.9424   32.3177 C   0  0  0  0  0  0  0  0  0  0  0  0
   -1.9560   -0.6344   31.0430 C   0  0  0  0  0  0  0  0  0  0  0  0
   -1.0356   -1.4827   30.4442 C   0  0  0  0  0  0  0  0  0  0  0  0
   -2.6272   -1.7160   24.6880 H   0  0  0  0  0  0  0  0  0  0  0  0
   -3.0077   -2.4332   26.2169 H   0  0  0  0  0  0  0  0  0  0  0  0
   -0.5205   -2.7725   23.5507 H   0  0  0  0  0  0  0  0  0  0  0  0
    1.6138   -3.3755   24.0452 H   0  0  0  0  0  0  0  0  0  0  0  0
    2.5994   -5.1615   27.8384 H   0  0  0  0  0  0  0  0  0  0  0  0
    3.7674   -5.7333   26.6936 H   0  0  0  0  0  0  0  0  0  0  0  0
    5.4741   -4.3224   27.4450 H   0  0  0  0  0  0  0  0  0  0  0  0
    4.5556   -4.4744   28.9305 H   0  0  0  0  0  0  0  0  0  0  0  0
    5.3325   -1.7112   26.4331 H   0  0  0  0  0  0  0  0  0  0  0  0
    3.6479   -1.2385   26.6812 H   0  0  0  0  0  0  0  0  0  0  0  0
    4.7496   -3.7012   25.2776 H   0  0  0  0  0  0  0  0  0  0  0  0
    3.5976   -2.5473   24.6395 H   0  0  0  0  0  0  0  0  0  0  0  0
    0.8566   -4.0357   27.9600 H   0  0  0  0  0  0  0  0  0  0  0  0
   -2.2215   -0.5419   26.6455 H   0  0  0  0  0  0  0  0  0  0  0  0
    0.1222    0.8031   29.6401 H   0  0  0  0  0  0  0  0  0  0  0  0
    1.5807   -1.3399   30.2952 H   0  0  0  0  0  0  0  0  0  0  0  0
    1.7497   -2.1417   28.7653 H   0  0  0  0  0  0  0  0  0  0  0  0
   -0.1673   -3.8400   29.5921 H   0  0  0  0  0  0  0  0  0  0  0  0
    2.0182   -4.6538   29.8220 H   0  0  0  0  0  0  0  0  0  0  0  0
   -0.6197   -3.7993   32.9346 H   0  0  0  0  0  0  0  0  0  0  0  0
   -2.2891   -2.3005   33.9924 H   0  0  0  0  0  0  0  0  0  0  0  0
   -3.1190   -0.2961   32.8163 H   0  0  0  0  0  0  0  0  0  0  0  0
   -2.3121    0.2670   30.5566 H   0  0  0  0  0  0  0  0  0  0  0  0
  1  2  1  0
  2  3  2  0
  3  4  1  0
  4  5  1  0
  5  6  1  0
  6  7  1  0
  7  8  1  0
  8  9  1  0
  9 10  1  0
 10 11  1  0
  5 12  2  0
 12 13  1  0
 13 14  2  3
 14 15  1  0
 15 16  1  0
 16 17  2  0
 16 18  1  0
 18 19  1  0
 19 20  1  0
 20 21  1  0
 21 22  1  0
 22 23  1  0
 22 24  1  0
 21 25  1  0
 25 26  2  0
 26 27  1  0
 27 28  2  0
 28 29  1  0
 29 30  2  0
 13  2  1  0
 19 14  1  0
 30 25  1  0
 11  6  1  0
 30 19  1  0
  1 31  1  0
  1 32  1  0
  3 33  1  0
  4 34  1  0
  7 35  1  0
  7 36  1  0
  8 37  1  0
  8 38  1  0
 10 39  1  0
 10 40  1  0
 11 41  1  0
 11 42  1  0
 12 43  1  0
 15 44  1  0
 18 45  1  0
 20 46  1  0
 20 47  1  0
 21 48  1  0
 22 49  1  0
 26 50  1  0
 27 51  1  0
 28 52  1  0
 29 53  1  0
M  END
>  <Energy>  (551) 
99.575680904642297

>  <compound_id>  (551) 
394

>  <target_id>  (551) 
1

>  <reference_id>  (551) 
177

>  <inspiration_ids>  (551) 
[177, 198]

>  <energy_score>  (551) 
-10.091434374931168

>  <distance_score>  (551) 
2.7575378701616207

>  <path>  (551) 
/opt/xchem-fragalysis-2/maxwin/BulkDock/SCRATCH/505736/C394-P177/C394-P177.minimised.mol

>  <scratch_subdir>  (551) 
/opt/xchem-fragalysis-2/maxwin/BulkDock/SCRATCH/505736/C394-P177

>  <fragmenstein_runtime>  (551) 
18.899160385131836

>  <fragmenstein_outcome>  (551) 
too moved

>  <fragmenstein_mode>  (551) 
expansion

>  <fragmenstein_error>  (551) 


$$$$
C394-P198
     RDKit          3D

 53 57  0  0  0  0  0  0  0  0999 V2000
   -1.7639   -3.8682   31.1605 N   0  0  0  0  0  0  0  0  0  0  0  0
   -0.8819   -4.1152   30.1100 C   0  0  0  0  0  0  0  0  0  0  0  0
   -0.0467   -5.1827   30.0935 C   0  0  0  0  0  0  0  0  0  0  0  0
    0.9992   -5.3559   29.2127 N   0  0  0  0  0  0  0  0  0  0  0  0
    1.3825   -4.3515   28.3473 C   0  0  0  0  0  0  0  0  0  0  0  0
    2.6013   -4.3784   27.6740 N   0  0  0  0  0  0  0  0  0  0  0  0
    3.4418   -3.1646   27.5199 C   0  0  0  0  0  0  0  0  0  0  0  0
    4.3332   -3.2907   26.2870 C   0  0  0  0  0  0  0  0  0  0  0  0
    5.2647   -4.3629   26.3719 O   0  0  0  0  0  0  0  0  0  0  0  0
    4.8478   -5.4008   27.2582 C   0  0  0  0  0  0  0  0  0  0  0  0
    3.3225   -5.6197   27.3077 C   0  0  0  0  0  0  0  0  0  0  0  0
    0.5329   -3.3103   28.2254 C   0  0  0  0  0  0  0  0  0  0  0  0
   -0.7287   -3.1586   28.9686 C   0  0  0  0  0  0  0  0  0  0  0  0
   -1.1967   -1.8792   28.9763 C   0  0  0  0  0  0  0  0  0  0  0  0
   -1.6884   -1.2784   27.8234 N   0  0  0  0  0  0  0  0  0  0  0  0
   -1.5013    0.0831   27.7859 C   0  0  0  0  0  0  0  0  0  0  0  0
   -1.8078    0.8530   26.8949 O   0  0  0  0  0  0  0  0  0  0  0  0
   -0.8591    0.4339   28.9522 N   0  0  0  0  0  0  0  0  0  0  0  0
   -0.5027   -0.7156   29.7333 C   0  0  0  0  0  0  0  0  0  0  0  0
    1.0328   -0.8200   29.9743 C   0  0  0  0  0  0  0  0  0  0  0  0
    1.1030   -1.8156   31.1397 C   0  0  0  0  0  0  0  0  0  0  0  0
    2.4326   -2.4136   31.4861 C   0  0  0  0  0  0  0  0  0  0  0  0
    3.0342   -2.8159   30.3396 F   0  0  0  0  0  0  0  0  0  0  0  0
    2.2238   -3.9233   32.3981 Cl  0  0  0  0  0  0  0  0  0  0  0  0
    0.0437   -1.2244   32.0196 C   0  0  0  0  0  0  0  0  0  0  0  0
   -0.1417   -1.2706   33.3828 C   0  0  0  0  0  0  0  0  0  0  0  0
   -1.3235   -0.7223   33.8862 C   0  0  0  0  0  0  0  0  0  0  0  0
   -2.2963   -0.1657   33.0298 C   0  0  0  0  0  0  0  0  0  0  0  0
   -2.1106   -0.1322   31.6584 C   0  0  0  0  0  0  0  0  0  0  0  0
   -0.9302   -0.6348   31.1713 C   0  0  0  0  0  0  0  0  0  0  0  0
   -2.0697   -2.8956   31.1712 H   0  0  0  0  0  0  0  0  0  0  0  0
   -1.3284   -4.0893   32.0576 H   0  0  0  0  0  0  0  0  0  0  0  0
   -0.0677   -5.9283   30.8809 H   0  0  0  0  0  0  0  0  0  0  0  0
    1.7784   -5.8971   29.5609 H   0  0  0  0  0  0  0  0  0  0  0  0
    4.0829   -3.0696   28.4025 H   0  0  0  0  0  0  0  0  0  0  0  0
    2.8604   -2.2448   27.4494 H   0  0  0  0  0  0  0  0  0  0  0  0
    4.8989   -2.3684   26.1226 H   0  0  0  0  0  0  0  0  0  0  0  0
    3.7361   -3.4811   25.3973 H   0  0  0  0  0  0  0  0  0  0  0  0
    5.2284   -5.1653   28.2594 H   0  0  0  0  0  0  0  0  0  0  0  0
    5.3422   -6.3243   26.9390 H   0  0  0  0  0  0  0  0  0  0  0  0
    3.1085   -6.4328   28.0078 H   0  0  0  0  0  0  0  0  0  0  0  0
    2.9724   -5.9284   26.3167 H   0  0  0  0  0  0  0  0  0  0  0  0
    0.8093   -2.4482   27.6394 H   0  0  0  0  0  0  0  0  0  0  0  0
   -2.0007   -1.7799   26.9984 H   0  0  0  0  0  0  0  0  0  0  0  0
   -0.5858    1.3911   29.1209 H   0  0  0  0  0  0  0  0  0  0  0  0
    1.6026   -1.1156   29.0939 H   0  0  0  0  0  0  0  0  0  0  0  0
    1.4492    0.1526   30.2805 H   0  0  0  0  0  0  0  0  0  0  0  0
    0.6351   -2.7112   30.8098 H   0  0  0  0  0  0  0  0  0  0  0  0
    3.0935   -1.7353   32.0315 H   0  0  0  0  0  0  0  0  0  0  0  0
    0.5788   -1.7308   34.0505 H   0  0  0  0  0  0  0  0  0  0  0  0
   -1.5107   -0.7477   34.9585 H   0  0  0  0  0  0  0  0  0  0  0  0
   -3.2159    0.2153   33.4660 H   0  0  0  0  0  0  0  0  0  0  0  0
   -2.8626    0.2542   30.9819 H   0  0  0  0  0  0  0  0  0  0  0  0
  1  2  1  0
  2  3  2  0
  3  4  1  0
  4  5  1  0
  5  6  1  0
  6  7  1  0
  7  8  1  0
  8  9  1  0
  9 10  1  0
 10 11  1  0
  5 12  2  0
 12 13  1  0
 13 14  2  3
 14 15  1  0
 15 16  1  0
 16 17  2  0
 16 18  1  0
 18 19  1  0
 19 20  1  0
 20 21  1  0
 21 22  1  0
 22 23  1  0
 22 24  1  0
 21 25  1  0
 25 26  2  0
 26 27  1  0
 27 28  2  0
 28 29  1  0
 29 30  2  0
 13  2  1  0
 19 14  1  0
 30 25  1  0
 11  6  1  0
 30 19  1  0
  1 31  1  0
  1 32  1  0
  3 33  1  0
  4 34  1  0
  7 35  1  0
  7 36  1  0
  8 37  1  0
  8 38  1  0
 10 39  1  0
 10 40  1  0
 11 41  1  0
 11 42  1  0
 12 43  1  0
 15 44  1  0
 18 45  1  0
 20 46  1  0
 20 47  1  0
 21 48  1  0
 22 49  1  0
 26 50  1  0
 27 51  1  0
 28 52  1  0
 29 53  1  0
M  END
>  <Energy>  (552) 
117.06275360451806

>  <compound_id>  (552) 
394

>  <target_id>  (552) 
1

>  <reference_id>  (552) 
198

>  <inspiration_ids>  (552) 
[177, 198]

>  <energy_score>  (552) 
7.3956383249457645

>  <distance_score>  (552) 
2.8387717334599305

>  <path>  (552) 
/opt/xchem-fragalysis-2/maxwin/BulkDock/SCRATCH/505736/C394-P198/C394-P198.minimised.mol

>  <scratch_subdir>  (552) 
/opt/xchem-fragalysis-2/maxwin/BulkDock/SCRATCH/505736/C394-P198

>  <fragmenstein_runtime>  (552) 
19.14076328277588

>  <fragmenstein_outcome>  (552) 
too moved

>  <fragmenstein_mode>  (552) 
expansion

>  <fragmenstein_error>  (552) 


$$$$
C2672-P178
     RDKit          3D

 42 43  0  0  0  0  0  0  0  0999 V2000
  -17.5039  -20.7978   10.8071 C   0  0  0  0  0  0  0  0  0  0  0  0
  -18.2065  -20.5618   12.4338 S   0  0  0  0  0  0  0  0  0  0  0  0
  -18.2558  -21.8942   13.0233 O   0  0  0  0  0  0  0  0  0  0  0  0
  -17.4954  -19.5021   13.1182 O   0  0  0  0  0  0  0  0  0  0  0  0
  -19.9463  -20.0386   12.2111 C   0  0  0  0  0  0  0  0  0  0  0  0
  -20.3246  -18.6126   12.4015 N   0  0  0  0  0  0  0  0  0  0  0  0
  -20.0486  -17.8592   11.1876 C   0  0  0  0  0  0  0  0  0  0  0  0
  -21.1471  -18.0027   10.0614 C   0  0  0  0  0  0  0  0  0  0  0  0
  -20.6913  -17.3892    8.7717 N   0  0  0  0  0  0  0  0  0  0  0  0
  -21.5481  -16.5748    8.0324 C   0  0  0  0  0  0  0  0  0  0  0  0
  -21.0762  -15.4039    7.4238 C   0  0  0  0  0  0  0  0  0  0  0  0
  -21.9430  -14.3227    7.2417 C   0  0  0  0  0  0  0  0  0  0  0  0
  -23.2754  -14.4568    7.6061 C   0  0  0  0  0  0  0  0  0  0  0  0
  -23.9079  -13.3504    8.1839 N   0  0  0  0  0  0  0  0  0  0  0  0
  -25.2932  -13.2331    8.9034 C   0  0  0  0  0  0  0  0  0  0  0  0
  -26.1440  -14.0291    9.0495 O   0  0  0  0  0  0  0  0  0  0  0  0
  -25.4029  -11.8335    9.5711 C   0  0  0  0  0  0  0  0  0  0  0  0
  -24.8915  -11.8665   10.8675 F   0  0  0  0  0  0  0  0  0  0  0  0
  -24.5702  -10.5650    8.6506 Cl  0  0  0  0  0  0  0  0  0  0  0  0
  -23.7237  -15.7367    7.8886 C   0  0  0  0  0  0  0  0  0  0  0  0
  -22.8830  -16.7802    8.1364 N   0  0  0  0  0  0  0  0  0  0  0  0
  -19.2652  -17.0735    8.7493 C   0  0  0  0  0  0  0  0  0  0  0  0
  -18.5556  -18.2513    9.3661 C   0  0  0  0  0  0  0  0  0  0  0  0
  -18.7544  -18.2741   10.7698 O   0  0  0  0  0  0  0  0  0  0  0  0
  -18.3011  -21.0148   10.0970 H   0  0  0  0  0  0  0  0  0  0  0  0
  -16.8464  -21.6694   10.8562 H   0  0  0  0  0  0  0  0  0  0  0  0
  -16.9048  -19.9329   10.5323 H   0  0  0  0  0  0  0  0  0  0  0  0
  -20.3121  -20.4666   11.2727 H   0  0  0  0  0  0  0  0  0  0  0  0
  -20.4743  -20.5838   13.0038 H   0  0  0  0  0  0  0  0  0  0  0  0
  -19.6596  -18.2534   13.0978 H   0  0  0  0  0  0  0  0  0  0  0  0
  -19.9823  -16.7975   11.4542 H   0  0  0  0  0  0  0  0  0  0  0  0
  -22.1038  -17.6186   10.4273 H   0  0  0  0  0  0  0  0  0  0  0  0
  -21.3093  -19.0646    9.8421 H   0  0  0  0  0  0  0  0  0  0  0  0
  -20.0215  -15.2060    7.2839 H   0  0  0  0  0  0  0  0  0  0  0  0
  -21.5195  -13.3506    7.0083 H   0  0  0  0  0  0  0  0  0  0  0  0
  -23.3818  -12.4902    8.3165 H   0  0  0  0  0  0  0  0  0  0  0  0
  -26.4586  -11.5564    9.6406 H   0  0  0  0  0  0  0  0  0  0  0  0
  -24.7614  -15.9432    8.1308 H   0  0  0  0  0  0  0  0  0  0  0  0
  -19.0505  -16.1397    9.2817 H   0  0  0  0  0  0  0  0  0  0  0  0
  -18.9315  -16.9993    7.7090 H   0  0  0  0  0  0  0  0  0  0  0  0
  -17.4835  -18.2349    9.1813 H   0  0  0  0  0  0  0  0  0  0  0  0
  -18.9239  -19.1909    8.9367 H   0  0  0  0  0  0  0  0  0  0  0  0
  1  2  1  0
  2  3  2  0
  2  4  2  0
  2  5  1  0
  5  6  1  0
  6  7  1  0
  7  8  1  0
  8  9  1  0
  9 10  1  0
 10 11  2  0
 11 12  1  0
 12 13  2  0
 13 14  1  0
 14 15  1  0
 15 16  2  0
 15 17  1  0
 17 18  1  0
 17 19  1  0
 13 20  1  0
 20 21  2  0
  9 22  1  0
 22 23  1  0
 23 24  1  0
 24  7  1  0
 21 10  1  0
  1 25  1  0
  1 26  1  0
  1 27  1  0
  5 28  1  0
  5 29  1  0
  6 30  1  0
  7 31  1  0
  8 32  1  0
  8 33  1  0
 11 34  1  0
 12 35  1  0
 14 36  1  0
 17 37  1  0
 20 38  1  0
 22 39  1  0
 22 40  1  0
 23 41  1  0
 23 42  1  0
M  END
>  <Energy>  (553) 
197.66862761846502

>  <compound_id>  (553) 
2672

>  <target_id>  (553) 
1

>  <reference_id>  (553) 
178

>  <inspiration_ids>  (553) 
[178, 172]

>  <energy_score>  (553) 
10.443238137432303

>  <distance_score>  (553) 
4.0127334200455005

>  <path>  (553) 
/opt/xchem-fragalysis-2/maxwin/BulkDock/SCRATCH/505736/C2672-P178/C2672-P178.minimised.mol

>  <scratch_subdir>  (553) 
/opt/xchem-fragalysis-2/maxwin/BulkDock/SCRATCH/505736/C2672-P178

>  <fragmenstein_runtime>  (553) 
6.769736051559448

>  <fragmenstein_outcome>  (553) 
too moved

>  <fragmenstein_mode>  (553) 
expansion

>  <fragmenstein_error>  (553) 


$$$$
C2672-P172
     RDKit          3D

 42 43  0  0  0  0  0  0  0  0999 V2000
  -18.5259  -20.7227    9.3428 C   0  0  0  0  0  0  0  0  0  0  0  0
  -18.3303  -19.3268   10.4065 S   0  0  0  0  0  0  0  0  0  0  0  0
  -17.0306  -19.5081   11.0256 O   0  0  0  0  0  0  0  0  0  0  0  0
  -18.6541  -18.1864    9.5732 O   0  0  0  0  0  0  0  0  0  0  0  0
  -19.6095  -19.5997   11.6617 C   0  0  0  0  0  0  0  0  0  0  0  0
  -19.2837  -19.3373   13.0745 N   0  0  0  0  0  0  0  0  0  0  0  0
  -19.9581  -18.2295   13.7375 C   0  0  0  0  0  0  0  0  0  0  0  0
  -20.9446  -17.3457   12.9573 C   0  0  0  0  0  0  0  0  0  0  0  0
  -20.1972  -16.6050   11.9244 N   0  0  0  0  0  0  0  0  0  0  0  0
  -21.0368  -16.0753   10.9459 C   0  0  0  0  0  0  0  0  0  0  0  0
  -20.7553  -14.8944   10.2848 C   0  0  0  0  0  0  0  0  0  0  0  0
  -21.8214  -14.1121    9.8419 C   0  0  0  0  0  0  0  0  0  0  0  0
  -23.1002  -14.5503   10.1415 C   0  0  0  0  0  0  0  0  0  0  0  0
  -23.8863  -13.7174   10.9336 N   0  0  0  0  0  0  0  0  0  0  0  0
  -24.0733  -12.1687   10.9001 C   0  0  0  0  0  0  0  0  0  0  0  0
  -23.6555  -11.3714   10.1535 O   0  0  0  0  0  0  0  0  0  0  0  0
  -24.8826  -11.8851   12.1839 C   0  0  0  0  0  0  0  0  0  0  0  0
  -24.3109  -12.5414   13.2587 F   0  0  0  0  0  0  0  0  0  0  0  0
  -24.9609  -10.1548   12.5439 Cl  0  0  0  0  0  0  0  0  0  0  0  0
  -23.2594  -15.8955   10.3617 C   0  0  0  0  0  0  0  0  0  0  0  0
  -22.2397  -16.6679   10.7524 N   0  0  0  0  0  0  0  0  0  0  0  0
  -19.1690  -15.7310   12.5537 C   0  0  0  0  0  0  0  0  0  0  0  0
  -18.2755  -16.5549   13.5003 C   0  0  0  0  0  0  0  0  0  0  0  0
  -19.0038  -17.3975   14.4069 O   0  0  0  0  0  0  0  0  0  0  0  0
  -18.3175  -21.6350    9.9050 H   0  0  0  0  0  0  0  0  0  0  0  0
  -17.8240  -20.6310    8.5119 H   0  0  0  0  0  0  0  0  0  0  0  0
  -19.5481  -20.7334    8.9589 H   0  0  0  0  0  0  0  0  0  0  0  0
  -20.5415  -19.1754   11.2872 H   0  0  0  0  0  0  0  0  0  0  0  0
  -19.7687  -20.6847   11.6282 H   0  0  0  0  0  0  0  0  0  0  0  0
  -18.2749  -19.1818   13.1604 H   0  0  0  0  0  0  0  0  0  0  0  0
  -20.5377  -18.6900   14.5461 H   0  0  0  0  0  0  0  0  0  0  0  0
  -21.7399  -17.9909   12.5666 H   0  0  0  0  0  0  0  0  0  0  0  0
  -21.4189  -16.6297   13.6434 H   0  0  0  0  0  0  0  0  0  0  0  0
  -19.7566  -14.4791   10.2770 H   0  0  0  0  0  0  0  0  0  0  0  0
  -21.6302  -13.0830    9.5627 H   0  0  0  0  0  0  0  0  0  0  0  0
  -24.3224  -14.0948   11.7716 H   0  0  0  0  0  0  0  0  0  0  0  0
  -25.9027  -12.2603   12.0600 H   0  0  0  0  0  0  0  0  0  0  0  0
  -24.2376  -16.3511   10.4712 H   0  0  0  0  0  0  0  0  0  0  0  0
  -18.5346  -15.2375   11.8149 H   0  0  0  0  0  0  0  0  0  0  0  0
  -19.6773  -14.9510   13.1357 H   0  0  0  0  0  0  0  0  0  0  0  0
  -17.6586  -15.8799   14.1017 H   0  0  0  0  0  0  0  0  0  0  0  0
  -17.5991  -17.2021   12.9470 H   0  0  0  0  0  0  0  0  0  0  0  0
  1  2  1  0
  2  3  2  0
  2  4  2  0
  2  5  1  0
  5  6  1  0
  6  7  1  0
  7  8  1  0
  8  9  1  0
  9 10  1  0
 10 11  2  0
 11 12  1  0
 12 13  2  0
 13 14  1  0
 14 15  1  0
 15 16  2  0
 15 17  1  0
 17 18  1  0
 17 19  1  0
 13 20  1  0
 20 21  2  0
  9 22  1  0
 22 23  1  0
 23 24  1  0
 24  7  1  0
 21 10  1  0
  1 25  1  0
  1 26  1  0
  1 27  1  0
  5 28  1  0
  5 29  1  0
  6 30  1  0
  7 31  1  0
  8 32  1  0
  8 33  1  0
 11 34  1  0
 12 35  1  0
 14 36  1  0
 17 37  1  0
 20 38  1  0
 22 39  1  0
 22 40  1  0
 23 41  1  0
 23 42  1  0
M  END
>  <Energy>  (554) 
210.73708789389681

>  <compound_id>  (554) 
2672

>  <target_id>  (554) 
1

>  <reference_id>  (554) 
172

>  <inspiration_ids>  (554) 
[178, 172]

>  <energy_score>  (554) 
23.511698412861705

>  <distance_score>  (554) 
2.801057217621936

>  <path>  (554) 
/opt/xchem-fragalysis-2/maxwin/BulkDock/SCRATCH/505736/C2672-P172/C2672-P172.minimised.mol

>  <scratch_subdir>  (554) 
/opt/xchem-fragalysis-2/maxwin/BulkDock/SCRATCH/505736/C2672-P172

>  <fragmenstein_runtime>  (554) 
7.3748040199279785

>  <fragmenstein_outcome>  (554) 
too moved

>  <fragmenstein_mode>  (554) 
expansion

>  <fragmenstein_error>  (554) 


$$$$
C2674-P179
     RDKit          3D

 64 67  0  0  0  0  0  0  0  0999 V2000
   -8.9783    0.8377    8.8226 C   0  0  0  0  0  0  0  0  0  0  0  0
   -9.1748   -0.4219    7.9868 C   0  0  0  0  0  0  0  0  0  0  0  0
   -7.8880   -1.1619    7.6058 C   0  0  0  0  0  0  0  0  0  0  0  0
   -6.8663   -0.2350    6.9794 C   0  0  0  0  0  0  0  0  0  0  0  0
   -7.3011    0.3132    5.6373 C   0  0  0  0  0  0  0  0  0  0  0  0
   -6.0634    1.1159    5.2706 C   0  0  0  0  0  0  0  0  0  0  0  0
   -6.0496    2.4219    6.1452 C   0  0  0  0  0  0  0  0  0  0  0  0
   -5.3609    3.5929    5.5739 N   0  0  0  0  0  0  0  0  0  0  0  0
   -6.0606    4.8785    5.9241 C   0  0  0  0  0  0  0  0  0  0  0  0
   -6.9281    4.9432    7.2149 C   0  0  0  0  0  0  0  0  0  0  0  0
   -7.2927    6.2721    7.5947 O   0  0  0  0  0  0  0  0  0  0  0  0
   -7.5943    7.0877    6.4734 C   0  0  0  0  0  0  0  0  0  0  0  0
   -6.3390    7.3639    5.6390 C   0  0  0  0  0  0  0  0  0  0  0  0
   -5.2491    6.2243    5.6926 C   0  0  0  0  0  0  0  0  0  0  0  0
   -4.6098    6.1271    4.2625 C   0  0  0  0  0  0  0  0  0  0  0  0
   -3.7787    7.3381    3.8833 C   0  0  0  0  0  0  0  0  0  0  0  0
   -2.7263    7.4921    4.8200 O   0  0  0  0  0  0  0  0  0  0  0  0
   -3.2167    7.7929    6.1201 C   0  0  0  0  0  0  0  0  0  0  0  0
   -4.0824    6.6570    6.7295 C   0  0  0  0  0  0  0  0  0  0  0  0
   -3.1845    5.4987    7.1276 C   0  0  0  0  0  0  0  0  0  0  0  0
   -3.8624    4.8869    8.2725 N   0  0  0  0  0  0  0  0  0  0  0  0
   -4.4315    5.9754    9.0376 N   0  0  0  0  0  0  0  0  0  0  0  0
   -4.5020    7.1285    8.1358 C   0  0  0  0  0  0  0  0  0  0  0  0
   -4.9951    0.1389    5.5552 N   0  0  0  0  0  0  0  0  0  0  0  0
   -5.4693   -0.7720    6.6481 C   0  0  0  0  0  0  0  0  0  0  0  0
   -4.5790   -0.7407    7.8919 C   0  0  0  0  0  0  0  0  0  0  0  0
   -4.2293    0.5410    8.1594 F   0  0  0  0  0  0  0  0  0  0  0  0
   -3.1213   -1.6559    7.6742 Cl  0  0  0  0  0  0  0  0  0  0  0  0
   -8.5412    1.6540    8.2415 H   0  0  0  0  0  0  0  0  0  0  0  0
   -9.9457    1.1899    9.1958 H   0  0  0  0  0  0  0  0  0  0  0  0
   -8.3427    0.6252    9.6857 H   0  0  0  0  0  0  0  0  0  0  0  0
   -9.7411   -0.1653    7.0841 H   0  0  0  0  0  0  0  0  0  0  0  0
   -9.8076   -1.1163    8.5519 H   0  0  0  0  0  0  0  0  0  0  0  0
   -8.1293   -1.9887    6.9275 H   0  0  0  0  0  0  0  0  0  0  0  0
   -7.4542   -1.6109    8.5001 H   0  0  0  0  0  0  0  0  0  0  0  0
   -6.7292    0.5801    7.6973 H   0  0  0  0  0  0  0  0  0  0  0  0
   -7.4857   -0.4921    4.9138 H   0  0  0  0  0  0  0  0  0  0  0  0
   -8.2058    0.9263    5.6865 H   0  0  0  0  0  0  0  0  0  0  0  0
   -6.0777    1.3720    4.2061 H   0  0  0  0  0  0  0  0  0  0  0  0
   -5.6068    2.2450    7.1292 H   0  0  0  0  0  0  0  0  0  0  0  0
   -7.1027    2.6673    6.2975 H   0  0  0  0  0  0  0  0  0  0  0  0
   -5.4201    3.5097    4.5532 H   0  0  0  0  0  0  0  0  0  0  0  0
   -6.8290    4.9097    5.1319 H   0  0  0  0  0  0  0  0  0  0  0  0
   -7.8725    4.4071    7.0619 H   0  0  0  0  0  0  0  0  0  0  0  0
   -6.4460    4.4587    8.0640 H   0  0  0  0  0  0  0  0  0  0  0  0
   -8.0117    8.0324    6.8373 H   0  0  0  0  0  0  0  0  0  0  0  0
   -8.3741    6.6077    5.8693 H   0  0  0  0  0  0  0  0  0  0  0  0
   -5.9138    8.3197    5.9624 H   0  0  0  0  0  0  0  0  0  0  0  0
   -6.6717    7.5426    4.6083 H   0  0  0  0  0  0  0  0  0  0  0  0
   -5.3862    5.9690    3.5037 H   0  0  0  0  0  0  0  0  0  0  0  0
   -3.9436    5.2577    4.2187 H   0  0  0  0  0  0  0  0  0  0  0  0
   -3.3270    7.1818    2.8982 H   0  0  0  0  0  0  0  0  0  0  0  0
   -4.3747    8.2556    3.8261 H   0  0  0  0  0  0  0  0  0  0  0  0
   -3.7666    8.7410    6.0800 H   0  0  0  0  0  0  0  0  0  0  0  0
   -2.3366    7.9883    6.7449 H   0  0  0  0  0  0  0  0  0  0  0  0
   -3.0486    4.8145    6.2989 H   0  0  0  0  0  0  0  0  0  0  0  0
   -2.1882    5.8367    7.4419 H   0  0  0  0  0  0  0  0  0  0  0  0
   -3.1611    4.3609    8.8132 H   0  0  0  0  0  0  0  0  0  0  0  0
   -5.3801    5.7470    9.3521 H   0  0  0  0  0  0  0  0  0  0  0  0
   -5.4663    7.6351    8.1808 H   0  0  0  0  0  0  0  0  0  0  0  0
   -3.7853    7.8619    8.5291 H   0  0  0  0  0  0  0  0  0  0  0  0
   -4.1600    0.6544    5.8505 H   0  0  0  0  0  0  0  0  0  0  0  0
   -5.5510   -1.7905    6.2484 H   0  0  0  0  0  0  0  0  0  0  0  0
   -5.1099   -1.1170    8.7598 H   0  0  0  0  0  0  0  0  0  0  0  0
  1  2  1  0
  2  3  1  0
  3  4  1  0
  4  5  1  0
  5  6  1  0
  6  7  1  0
  7  8  1  0
  8  9  1  0
  9 10  1  0
 10 11  1  0
 11 12  1  0
 12 13  1  0
 13 14  1  0
 14 15  1  0
 15 16  1  0
 16 17  1  0
 17 18  1  0
 18 19  1  0
 19 20  1  0
 20 21  1  0
 21 22  1  0
 22 23  1  0
  6 24  1  0
 24 25  1  0
 25 26  1  0
 26 27  1  0
 26 28  1  0
 25  4  1  0
 14  9  1  0
 23 19  1  0
 19 14  1  0
  1 29  1  0
  1 30  1  0
  1 31  1  0
  2 32  1  0
  2 33  1  0
  3 34  1  0
  3 35  1  0
  4 36  1  0
  5 37  1  0
  5 38  1  0
  6 39  1  0
  7 40  1  0
  7 41  1  0
  8 42  1  0
  9 43  1  0
 10 44  1  0
 10 45  1  0
 12 46  1  0
 12 47  1  0
 13 48  1  0
 13 49  1  0
 15 50  1  0
 15 51  1  0
 16 52  1  0
 16 53  1  0
 18 54  1  0
 18 55  1  0
 20 56  1  0
 20 57  1  0
 21 58  1  0
 22 59  1  0
 23 60  1  0
 23 61  1  0
 24 62  1  0
 25 63  1  0
 26 64  1  0
M  END
>  <Energy>  (555) 
205.80268963229665

>  <compound_id>  (555) 
2674

>  <target_id>  (555) 
1

>  <reference_id>  (555) 
179

>  <inspiration_ids>  (555) 
[179, 33]

>  <energy_score>  (555) 
-50.17898144710159

>  <distance_score>  (555) 
1.5172451753479976

>  <path>  (555) 
/opt/xchem-fragalysis-2/maxwin/BulkDock/SCRATCH/505736/C2674-P179/C2674-P179.minimised.mol

>  <scratch_subdir>  (555) 
/opt/xchem-fragalysis-2/maxwin/BulkDock/SCRATCH/505736/C2674-P179

>  <fragmenstein_runtime>  (555) 
20.840713024139404

>  <fragmenstein_outcome>  (555) 
too moved

>  <fragmenstein_mode>  (555) 
expansion

>  <fragmenstein_error>  (555) 


$$$$
C2674-P33
     RDKit          3D

 64 67  0  0  0  0  0  0  0  0999 V2000
   -9.4013    1.3354    8.2320 C   0  0  0  0  0  0  0  0  0  0  0  0
   -8.6089    0.2561    8.9461 C   0  0  0  0  0  0  0  0  0  0  0  0
   -7.9045   -0.7484    8.0305 C   0  0  0  0  0  0  0  0  0  0  0  0
   -6.9019   -0.0518    7.1259 C   0  0  0  0  0  0  0  0  0  0  0  0
   -7.4665    0.1304    5.7372 C   0  0  0  0  0  0  0  0  0  0  0  0
   -6.2579    0.6252    4.9755 C   0  0  0  0  0  0  0  0  0  0  0  0
   -6.2211    2.1849    4.9740 C   0  0  0  0  0  0  0  0  0  0  0  0
   -5.6756    2.8862    6.1480 N   0  0  0  0  0  0  0  0  0  0  0  0
   -6.2990    4.2007    6.4110 C   0  0  0  0  0  0  0  0  0  0  0  0
   -6.8348    4.2430    7.8579 C   0  0  0  0  0  0  0  0  0  0  0  0
   -7.9495    5.1381    7.9757 O   0  0  0  0  0  0  0  0  0  0  0  0
   -7.8229    6.3260    7.1979 C   0  0  0  0  0  0  0  0  0  0  0  0
   -6.3659    6.6939    6.9355 C   0  0  0  0  0  0  0  0  0  0  0  0
   -5.5766    5.5993    6.1062 C   0  0  0  0  0  0  0  0  0  0  0  0
   -5.8272    5.9620    4.6029 C   0  0  0  0  0  0  0  0  0  0  0  0
   -5.0574    5.0954    3.6143 C   0  0  0  0  0  0  0  0  0  0  0  0
   -3.9588    4.4348    4.2458 O   0  0  0  0  0  0  0  0  0  0  0  0
   -3.2282    5.3791    5.0311 C   0  0  0  0  0  0  0  0  0  0  0  0
   -3.9789    5.6981    6.3458 C   0  0  0  0  0  0  0  0  0  0  0  0
   -3.4349    4.8813    7.5247 C   0  0  0  0  0  0  0  0  0  0  0  0
   -3.6931    5.7246    8.6914 N   0  0  0  0  0  0  0  0  0  0  0  0
   -3.3823    7.0737    8.2710 N   0  0  0  0  0  0  0  0  0  0  0  0
   -3.4766    7.0928    6.8045 C   0  0  0  0  0  0  0  0  0  0  0  0
   -5.1043   -0.0497    5.5983 N   0  0  0  0  0  0  0  0  0  0  0  0
   -5.5978   -0.7826    6.8002 C   0  0  0  0  0  0  0  0  0  0  0  0
   -4.6112   -0.7451    7.9708 C   0  0  0  0  0  0  0  0  0  0  0  0
   -4.2193    0.5359    8.2001 F   0  0  0  0  0  0  0  0  0  0  0  0
   -3.1922   -1.7132    7.6358 Cl  0  0  0  0  0  0  0  0  0  0  0  0
   -8.7819    1.9628    7.5919 H   0  0  0  0  0  0  0  0  0  0  0  0
  -10.1844    0.8889    7.6105 H   0  0  0  0  0  0  0  0  0  0  0  0
   -9.8879    1.9884    8.9638 H   0  0  0  0  0  0  0  0  0  0  0  0
   -9.3043   -0.2900    9.5939 H   0  0  0  0  0  0  0  0  0  0  0  0
   -7.8732    0.7289    9.6070 H   0  0  0  0  0  0  0  0  0  0  0  0
   -8.6517   -1.3088    7.4560 H   0  0  0  0  0  0  0  0  0  0  0  0
   -7.3784   -1.4805    8.6436 H   0  0  0  0  0  0  0  0  0  0  0  0
   -6.6454    0.9182    7.5689 H   0  0  0  0  0  0  0  0  0  0  0  0
   -7.8036   -0.8298    5.3228 H   0  0  0  0  0  0  0  0  0  0  0  0
   -8.3172    0.8151    5.6961 H   0  0  0  0  0  0  0  0  0  0  0  0
   -6.3349    0.2988    3.9314 H   0  0  0  0  0  0  0  0  0  0  0  0
   -7.2414    2.5225    4.7524 H   0  0  0  0  0  0  0  0  0  0  0  0
   -5.6404    2.4679    4.0957 H   0  0  0  0  0  0  0  0  0  0  0  0
   -4.6665    2.9581    6.1237 H   0  0  0  0  0  0  0  0  0  0  0  0
   -7.2136    4.2285    5.8031 H   0  0  0  0  0  0  0  0  0  0  0  0
   -7.1901    3.2626    8.1796 H   0  0  0  0  0  0  0  0  0  0  0  0
   -6.0683    4.5409    8.5747 H   0  0  0  0  0  0  0  0  0  0  0  0
   -8.3207    7.1310    7.7485 H   0  0  0  0  0  0  0  0  0  0  0  0
   -8.3759    6.1929    6.2620 H   0  0  0  0  0  0  0  0  0  0  0  0
   -5.9194    6.8241    7.9223 H   0  0  0  0  0  0  0  0  0  0  0  0
   -6.3296    7.6693    6.4371 H   0  0  0  0  0  0  0  0  0  0  0  0
   -5.5162    7.0033    4.4365 H   0  0  0  0  0  0  0  0  0  0  0  0
   -6.8941    5.9450    4.3485 H   0  0  0  0  0  0  0  0  0  0  0  0
   -5.7126    4.3427    3.1702 H   0  0  0  0  0  0  0  0  0  0  0  0
   -4.6823    5.7004    2.7798 H   0  0  0  0  0  0  0  0  0  0  0  0
   -3.0753    6.2858    4.4278 H   0  0  0  0  0  0  0  0  0  0  0  0
   -2.2229    4.9976    5.2098 H   0  0  0  0  0  0  0  0  0  0  0  0
   -3.8754    3.8983    7.6710 H   0  0  0  0  0  0  0  0  0  0  0  0
   -2.3502    4.7373    7.4439 H   0  0  0  0  0  0  0  0  0  0  0  0
   -3.0691    5.4106    9.4474 H   0  0  0  0  0  0  0  0  0  0  0  0
   -4.0393    7.7442    8.6790 H   0  0  0  0  0  0  0  0  0  0  0  0
   -4.0964    7.9194    6.4455 H   0  0  0  0  0  0  0  0  0  0  0  0
   -2.4629    7.2900    6.4320 H   0  0  0  0  0  0  0  0  0  0  0  0
   -4.4535    0.6766    5.9090 H   0  0  0  0  0  0  0  0  0  0  0  0
   -5.8121   -1.8222    6.5182 H   0  0  0  0  0  0  0  0  0  0  0  0
   -5.0724   -1.1100    8.8828 H   0  0  0  0  0  0  0  0  0  0  0  0
  1  2  1  0
  2  3  1  0
  3  4  1  0
  4  5  1  0
  5  6  1  0
  6  7  1  0
  7  8  1  0
  8  9  1  0
  9 10  1  0
 10 11  1  0
 11 12  1  0
 12 13  1  0
 13 14  1  0
 14 15  1  0
 15 16  1  0
 16 17  1  0
 17 18  1  0
 18 19  1  0
 19 20  1  0
 20 21  1  0
 21 22  1  0
 22 23  1  0
  6 24  1  0
 24 25  1  0
 25 26  1  0
 26 27  1  0
 26 28  1  0
 25  4  1  0
 14  9  1  0
 23 19  1  0
 19 14  1  0
  1 29  1  0
  1 30  1  0
  1 31  1  0
  2 32  1  0
  2 33  1  0
  3 34  1  0
  3 35  1  0
  4 36  1  0
  5 37  1  0
  5 38  1  0
  6 39  1  0
  7 40  1  0
  7 41  1  0
  8 42  1  0
  9 43  1  0
 10 44  1  0
 10 45  1  0
 12 46  1  0
 12 47  1  0
 13 48  1  0
 13 49  1  0
 15 50  1  0
 15 51  1  0
 16 52  1  0
 16 53  1  0
 18 54  1  0
 18 55  1  0
 20 56  1  0
 20 57  1  0
 21 58  1  0
 22 59  1  0
 23 60  1  0
 23 61  1  0
 24 62  1  0
 25 63  1  0
 26 64  1  0
M  END
>  <Energy>  (556) 
208.12076432047874

>  <compound_id>  (556) 
2674

>  <target_id>  (556) 
1

>  <reference_id>  (556) 
33

>  <inspiration_ids>  (556) 
[179, 33]

>  <energy_score>  (556) 
-47.860906758918304

>  <distance_score>  (556) 
1.5474080835558832

>  <path>  (556) 
/opt/xchem-fragalysis-2/maxwin/BulkDock/SCRATCH/505736/C2674-P33/C2674-P33.minimised.mol

>  <scratch_subdir>  (556) 
/opt/xchem-fragalysis-2/maxwin/BulkDock/SCRATCH/505736/C2674-P33

>  <fragmenstein_runtime>  (556) 
20.708625555038452

>  <fragmenstein_outcome>  (556) 
too moved

>  <fragmenstein_mode>  (556) 
expansion

>  <fragmenstein_error>  (556) 


$$$$
C2675-P179
     RDKit          3D

 48 52  0  0  0  0  0  0  0  0999 V2000
   -3.9629   -1.0383    5.8450 O   0  0  0  0  0  0  0  0  0  0  0  0
   -5.0681   -1.4476    6.2038 C   0  0  0  0  0  0  0  0  0  0  0  0
   -5.4620   -2.8764    6.0010 C   0  0  0  0  0  0  0  0  0  0  0  0
   -6.2549   -3.0440    4.4262 Cl  0  0  0  0  0  0  0  0  0  0  0  0
   -6.0373   -0.4927    6.8157 C   0  0  0  0  0  0  0  0  0  0  0  0
   -5.6190    0.8252    6.9325 C   0  0  0  0  0  0  0  0  0  0  0  0
   -6.4741    1.7985    7.4367 C   0  0  0  0  0  0  0  0  0  0  0  0
   -7.7647    1.4730    7.8743 C   0  0  0  0  0  0  0  0  0  0  0  0
   -8.6040    2.4425    8.4205 C   0  0  0  0  0  0  0  0  0  0  0  0
   -9.8489    2.2253    8.8948 N   0  0  0  0  0  0  0  0  0  0  0  0
  -10.3708    0.9877    8.7369 C   0  0  0  0  0  0  0  0  0  0  0  0
   -9.6098   -0.0401    8.1374 C   0  0  0  0  0  0  0  0  0  0  0  0
   -8.2437    0.1645    7.7664 C   0  0  0  0  0  0  0  0  0  0  0  0
   -7.3389   -0.8167    7.2337 C   0  0  0  0  0  0  0  0  0  0  0  0
  -10.1567   -1.2437    7.7727 O   0  0  0  0  0  0  0  0  0  0  0  0
  -11.5325   -1.1123    7.4178 C   0  0  0  0  0  0  0  0  0  0  0  0
  -12.3405   -0.5507    8.5741 C   0  0  0  0  0  0  0  0  0  0  0  0
  -11.8869    0.8758    8.9872 C   0  0  0  0  0  0  0  0  0  0  0  0
  -12.5427    1.9305    8.0199 C   0  0  0  0  0  0  0  0  0  0  0  0
  -13.8865    2.4683    8.4930 C   0  0  0  0  0  0  0  0  0  0  0  0
  -14.5993    1.4404    9.1523 O   0  0  0  0  0  0  0  0  0  0  0  0
  -14.0124    1.1529   10.4227 C   0  0  0  0  0  0  0  0  0  0  0  0
  -12.4240    1.1822   10.4647 C   0  0  0  0  0  0  0  0  0  0  0  0
  -11.9882    0.2937   11.5428 N   0  0  0  0  0  0  0  0  0  0  0  0
  -12.2486    1.0528   12.7582 C   0  0  0  0  0  0  0  0  0  0  0  0
  -11.8480    2.3935   12.4080 N   0  0  0  0  0  0  0  0  0  0  0  0
  -11.9969    2.5132   10.9605 N   0  0  0  0  0  0  0  0  0  0  0  0
   -4.5380   -3.4568    6.0044 H   0  0  0  0  0  0  0  0  0  0  0  0
   -6.1059   -3.2615    6.7923 H   0  0  0  0  0  0  0  0  0  0  0  0
   -4.6169    1.1119    6.6331 H   0  0  0  0  0  0  0  0  0  0  0  0
   -6.1130    2.8230    7.5152 H   0  0  0  0  0  0  0  0  0  0  0  0
   -8.2782    3.4766    8.5137 H   0  0  0  0  0  0  0  0  0  0  0  0
   -7.7229   -1.8303    7.1367 H   0  0  0  0  0  0  0  0  0  0  0  0
  -11.6255   -0.5078    6.5071 H   0  0  0  0  0  0  0  0  0  0  0  0
  -11.8998   -2.1130    7.1652 H   0  0  0  0  0  0  0  0  0  0  0  0
  -13.4041   -0.5857    8.3185 H   0  0  0  0  0  0  0  0  0  0  0  0
  -12.1960   -1.2149    9.4248 H   0  0  0  0  0  0  0  0  0  0  0  0
  -12.6831    1.4721    7.0322 H   0  0  0  0  0  0  0  0  0  0  0  0
  -11.9073    2.8039    7.8312 H   0  0  0  0  0  0  0  0  0  0  0  0
  -14.4755    2.7907    7.6276 H   0  0  0  0  0  0  0  0  0  0  0  0
  -13.7835    3.3451    9.1427 H   0  0  0  0  0  0  0  0  0  0  0  0
  -14.3815    0.1556   10.6935 H   0  0  0  0  0  0  0  0  0  0  0  0
  -14.4512    1.8448   11.1533 H   0  0  0  0  0  0  0  0  0  0  0  0
  -12.5247   -0.5600   11.5623 H   0  0  0  0  0  0  0  0  0  0  0  0
  -13.3093    1.0140   13.0336 H   0  0  0  0  0  0  0  0  0  0  0  0
  -11.6810    0.6731   13.6085 H   0  0  0  0  0  0  0  0  0  0  0  0
  -12.3627    3.0912   12.9536 H   0  0  0  0  0  0  0  0  0  0  0  0
  -11.0597    2.6770   10.5591 H   0  0  0  0  0  0  0  0  0  0  0  0
  1  2  2  0
  2  3  1  0
  3  4  1  0
  2  5  1  0
  5  6  2  0
  6  7  1  0
  7  8  2  0
  8  9  1  0
  9 10  2  0
 10 11  1  0
 11 12  2  0
 12 13  1  0
 13 14  2  0
 12 15  1  0
 15 16  1  0
 16 17  1  0
 17 18  1  0
 18 19  1  0
 19 20  1  0
 20 21  1  0
 21 22  1  0
 22 23  1  0
 23 24  1  0
 24 25  1  0
 25 26  1  0
 26 27  1  0
 14  5  1  0
 23 18  1  0
 13  8  1  0
 27 23  1  0
 18 11  1  0
  3 28  1  0
  3 29  1  0
  6 30  1  0
  7 31  1  0
  9 32  1  0
 14 33  1  0
 16 34  1  0
 16 35  1  0
 17 36  1  0
 17 37  1  0
 19 38  1  0
 19 39  1  0
 20 40  1  0
 20 41  1  0
 22 42  1  0
 22 43  1  0
 24 44  1  0
 25 45  1  0
 25 46  1  0
 26 47  1  0
 27 48  1  0
M  END
>  <Energy>  (557) 
147.57546651986786

>  <compound_id>  (557) 
2675

>  <target_id>  (557) 
1

>  <reference_id>  (557) 
179

>  <inspiration_ids>  (557) 
[179, 37]

>  <energy_score>  (557) 
-101.79450576314241

>  <distance_score>  (557) 
1.8197694289728499

>  <path>  (557) 
/opt/xchem-fragalysis-2/maxwin/BulkDock/SCRATCH/505736/C2675-P179/C2675-P179.minimised.mol

>  <scratch_subdir>  (557) 
/opt/xchem-fragalysis-2/maxwin/BulkDock/SCRATCH/505736/C2675-P179

>  <fragmenstein_runtime>  (557) 
2.6664769649505615

>  <fragmenstein_outcome>  (557) 
too moved

>  <fragmenstein_mode>  (557) 
expansion

>  <fragmenstein_error>  (557) 


$$$$
C2675-P37
     RDKit          3D

 48 52  0  0  0  0  0  0  0  0999 V2000
   -5.0322   -3.1338    6.8218 O   0  0  0  0  0  0  0  0  0  0  0  0
   -6.1941   -2.8185    6.5881 C   0  0  0  0  0  0  0  0  0  0  0  0
   -7.1754   -3.7209    5.8361 C   0  0  0  0  0  0  0  0  0  0  0  0
   -6.5861   -4.1703    4.2211 Cl  0  0  0  0  0  0  0  0  0  0  0  0
   -6.7021   -1.5314    7.1400 C   0  0  0  0  0  0  0  0  0  0  0  0
   -5.8858   -0.4304    7.3852 C   0  0  0  0  0  0  0  0  0  0  0  0
   -6.4476    0.7635    7.8547 C   0  0  0  0  0  0  0  0  0  0  0  0
   -7.8226    0.8510    8.1563 C   0  0  0  0  0  0  0  0  0  0  0  0
   -8.4559    1.9911    8.6531 C   0  0  0  0  0  0  0  0  0  0  0  0
   -9.7671    2.0665    8.9970 N   0  0  0  0  0  0  0  0  0  0  0  0
  -10.5497    0.9794    8.7852 C   0  0  0  0  0  0  0  0  0  0  0  0
  -10.0173   -0.1616    8.1877 C   0  0  0  0  0  0  0  0  0  0  0  0
   -8.6350   -0.2619    7.9503 C   0  0  0  0  0  0  0  0  0  0  0  0
   -8.0476   -1.4418    7.4712 C   0  0  0  0  0  0  0  0  0  0  0  0
  -10.7914   -1.1904    7.7200 O   0  0  0  0  0  0  0  0  0  0  0  0
  -12.0608   -0.7274    7.2813 C   0  0  0  0  0  0  0  0  0  0  0  0
  -12.8016   -0.1492    8.4615 C   0  0  0  0  0  0  0  0  0  0  0  0
  -12.0504    1.0717    9.1131 C   0  0  0  0  0  0  0  0  0  0  0  0
  -12.5936    2.3898    8.4827 C   0  0  0  0  0  0  0  0  0  0  0  0
  -13.8977    2.8757    9.1114 C   0  0  0  0  0  0  0  0  0  0  0  0
  -14.6460    1.7956    9.6403 O   0  0  0  0  0  0  0  0  0  0  0  0
  -13.9969    1.1644   10.7559 C   0  0  0  0  0  0  0  0  0  0  0  0
  -12.4155    1.0952   10.6543 C   0  0  0  0  0  0  0  0  0  0  0  0
  -11.7879    2.1773   11.4159 N   0  0  0  0  0  0  0  0  0  0  0  0
  -11.9293    1.8000   12.8127 C   0  0  0  0  0  0  0  0  0  0  0  0
  -12.0806    0.3543   12.8099 N   0  0  0  0  0  0  0  0  0  0  0  0
  -11.9254   -0.0599   11.4187 N   0  0  0  0  0  0  0  0  0  0  0  0
   -8.1354   -3.2412    5.6501 H   0  0  0  0  0  0  0  0  0  0  0  0
   -7.3420   -4.6265    6.4251 H   0  0  0  0  0  0  0  0  0  0  0  0
   -4.8136   -0.4799    7.2278 H   0  0  0  0  0  0  0  0  0  0  0  0
   -5.8072    1.6291    7.9950 H   0  0  0  0  0  0  0  0  0  0  0  0
   -7.9098    2.9175    8.8005 H   0  0  0  0  0  0  0  0  0  0  0  0
   -8.6993   -2.3112    7.3928 H   0  0  0  0  0  0  0  0  0  0  0  0
  -11.9503   -0.0101    6.4580 H   0  0  0  0  0  0  0  0  0  0  0  0
  -12.6068   -1.5910    6.8857 H   0  0  0  0  0  0  0  0  0  0  0  0
  -13.8155    0.1110    8.1408 H   0  0  0  0  0  0  0  0  0  0  0  0
  -12.9041   -0.9577    9.1949 H   0  0  0  0  0  0  0  0  0  0  0  0
  -12.7505    2.2350    7.4064 H   0  0  0  0  0  0  0  0  0  0  0  0
  -11.8800    3.2202    8.5459 H   0  0  0  0  0  0  0  0  0  0  0  0
  -14.5083    3.3678    8.3467 H   0  0  0  0  0  0  0  0  0  0  0  0
  -13.7256    3.6242    9.8923 H   0  0  0  0  0  0  0  0  0  0  0  0
  -14.4183    0.1530   10.8163 H   0  0  0  0  0  0  0  0  0  0  0  0
  -14.3377    1.6825   11.6594 H   0  0  0  0  0  0  0  0  0  0  0  0
  -12.2422    3.0695   11.2694 H   0  0  0  0  0  0  0  0  0  0  0  0
  -11.0490    2.1177   13.3766 H   0  0  0  0  0  0  0  0  0  0  0  0
  -12.8256    2.2451   13.2490 H   0  0  0  0  0  0  0  0  0  0  0  0
  -11.3782   -0.0599   13.4210 H   0  0  0  0  0  0  0  0  0  0  0  0
  -10.9283   -0.1303   11.1897 H   0  0  0  0  0  0  0  0  0  0  0  0
  1  2  2  0
  2  3  1  0
  3  4  1  0
  2  5  1  0
  5  6  2  0
  6  7  1  0
  7  8  2  0
  8  9  1  0
  9 10  2  0
 10 11  1  0
 11 12  2  0
 12 13  1  0
 13 14  2  0
 12 15  1  0
 15 16  1  0
 16 17  1  0
 17 18  1  0
 18 19  1  0
 19 20  1  0
 20 21  1  0
 21 22  1  0
 22 23  1  0
 23 24  1  0
 24 25  1  0
 25 26  1  0
 26 27  1  0
 14  5  1  0
 23 18  1  0
 13  8  1  0
 27 23  1  0
 18 11  1  0
  3 28  1  0
  3 29  1  0
  6 30  1  0
  7 31  1  0
  9 32  1  0
 14 33  1  0
 16 34  1  0
 16 35  1  0
 17 36  1  0
 17 37  1  0
 19 38  1  0
 19 39  1  0
 20 40  1  0
 20 41  1  0
 22 42  1  0
 22 43  1  0
 24 44  1  0
 25 45  1  0
 25 46  1  0
 26 47  1  0
 27 48  1  0
M  END
>  <Energy>  (558) 
153.01004312897555

>  <compound_id>  (558) 
2675

>  <target_id>  (558) 
1

>  <reference_id>  (558) 
37

>  <inspiration_ids>  (558) 
[179, 37]

>  <energy_score>  (558) 
-96.35992915403705

>  <distance_score>  (558) 
1.8457574233474865

>  <path>  (558) 
/opt/xchem-fragalysis-2/maxwin/BulkDock/SCRATCH/505736/C2675-P37/C2675-P37.minimised.mol

>  <scratch_subdir>  (558) 
/opt/xchem-fragalysis-2/maxwin/BulkDock/SCRATCH/505736/C2675-P37

>  <fragmenstein_runtime>  (558) 
3.561572790145874

>  <fragmenstein_outcome>  (558) 
too moved

>  <fragmenstein_mode>  (558) 
expansion

>  <fragmenstein_error>  (558) 


$$$$
C2676-P179
     RDKit          3D

 55 57  0  0  0  0  0  0  0  0999 V2000
   -8.6955    0.6289    2.2969 O   0  0  0  0  0  0  0  0  0  0  0  0
   -7.6924   -0.3335    2.6102 C   0  0  0  0  0  0  0  0  0  0  0  0
   -7.7123   -1.4389    1.5608 C   0  0  0  0  0  0  0  0  0  0  0  0
   -6.5041   -2.3972    1.5903 C   0  0  0  0  0  0  0  0  0  0  0  0
   -6.4735   -3.1695    0.2637 C   0  0  0  0  0  0  0  0  0  0  0  0
   -5.4184   -4.0262    0.2540 F   0  0  0  0  0  0  0  0  0  0  0  0
   -6.5129   -3.4223    2.7486 C   0  0  0  0  0  0  0  0  0  0  0  0
   -6.3537   -2.8693    4.1324 C   0  0  0  0  0  0  0  0  0  0  0  0
   -7.1962   -3.1358    5.1484 C   0  0  0  0  0  0  0  0  0  0  0  0
   -6.8760   -2.1977    6.1648 C   0  0  0  0  0  0  0  0  0  0  0  0
   -7.5038   -1.8891    7.3023 C   0  0  0  0  0  0  0  0  0  0  0  0
   -7.0075   -0.7711    8.1076 C   0  0  0  0  0  0  0  0  0  0  0  0
   -6.4575    0.2614    7.4345 C   0  0  0  0  0  0  0  0  0  0  0  0
   -7.3139    1.4164    6.9664 C   0  0  0  0  0  0  0  0  0  0  0  0
   -8.2394    1.9345    8.0651 C   0  0  0  0  0  0  0  0  0  0  0  0
   -9.6741    1.4338    7.9847 C   0  0  0  0  0  0  0  0  0  0  0  0
  -10.2691    1.3014    9.3895 C   0  0  0  0  0  0  0  0  0  0  0  0
  -11.7085    1.0781    9.3212 N   0  0  0  0  0  0  0  0  0  0  0  0
  -12.2178    0.4096   10.5262 C   0  0  0  0  0  0  0  0  0  0  0  0
  -13.7499    0.3173   10.4639 C   0  0  0  0  0  0  0  0  0  0  0  0
  -14.4134    1.5866   10.3721 O   0  0  0  0  0  0  0  0  0  0  0  0
  -13.5173    2.6674   10.1032 C   0  0  0  0  0  0  0  0  0  0  0  0
  -12.4694    2.3114    9.0362 C   0  0  0  0  0  0  0  0  0  0  0  0
   -5.0398   -0.1250    6.4555 S   0  0  0  0  0  0  0  0  0  0  0  0
   -5.7178   -1.4637    5.6003 C   0  0  0  0  0  0  0  0  0  0  0  0
   -5.3893   -1.8951    4.4107 N   0  0  0  0  0  0  0  0  0  0  0  0
   -8.4242    1.0759    1.4771 H   0  0  0  0  0  0  0  0  0  0  0  0
   -6.7256    0.1775    2.6476 H   0  0  0  0  0  0  0  0  0  0  0  0
   -7.9303   -0.7184    3.6020 H   0  0  0  0  0  0  0  0  0  0  0  0
   -7.7605   -0.9584    0.5739 H   0  0  0  0  0  0  0  0  0  0  0  0
   -8.6496   -2.0036    1.6480 H   0  0  0  0  0  0  0  0  0  0  0  0
   -5.5880   -1.8001    1.6487 H   0  0  0  0  0  0  0  0  0  0  0  0
   -7.3837   -3.7603    0.1187 H   0  0  0  0  0  0  0  0  0  0  0  0
   -6.3569   -2.4927   -0.5882 H   0  0  0  0  0  0  0  0  0  0  0  0
   -7.4558   -3.9767    2.6850 H   0  0  0  0  0  0  0  0  0  0  0  0
   -5.7242   -4.1663    2.6002 H   0  0  0  0  0  0  0  0  0  0  0  0
   -8.0510   -3.7887    5.1549 H   0  0  0  0  0  0  0  0  0  0  0  0
   -8.3888   -2.4149    7.6494 H   0  0  0  0  0  0  0  0  0  0  0  0
   -6.3350   -1.2487    8.8198 H   0  0  0  0  0  0  0  0  0  0  0  0
   -6.6420    2.2427    6.6968 H   0  0  0  0  0  0  0  0  0  0  0  0
   -7.8679    1.1552    6.0566 H   0  0  0  0  0  0  0  0  0  0  0  0
   -7.8312    1.6384    9.0275 H   0  0  0  0  0  0  0  0  0  0  0  0
   -8.2549    3.0312    8.0423 H   0  0  0  0  0  0  0  0  0  0  0  0
   -9.7243    0.4575    7.4872 H   0  0  0  0  0  0  0  0  0  0  0  0
  -10.2514    2.1293    7.3640 H   0  0  0  0  0  0  0  0  0  0  0  0
   -9.7778    0.4426    9.8657 H   0  0  0  0  0  0  0  0  0  0  0  0
  -10.0392    2.1779   10.0089 H   0  0  0  0  0  0  0  0  0  0  0  0
  -11.9172    0.9560   11.4294 H   0  0  0  0  0  0  0  0  0  0  0  0
  -11.7959   -0.5982   10.5929 H   0  0  0  0  0  0  0  0  0  0  0  0
  -14.0610   -0.2768    9.5975 H   0  0  0  0  0  0  0  0  0  0  0  0
  -14.1332   -0.1850   11.3570 H   0  0  0  0  0  0  0  0  0  0  0  0
  -13.0378    2.9695   11.0419 H   0  0  0  0  0  0  0  0  0  0  0  0
  -14.1195    3.5163    9.7632 H   0  0  0  0  0  0  0  0  0  0  0  0
  -11.8170    3.1795    8.8832 H   0  0  0  0  0  0  0  0  0  0  0  0
  -12.9930    2.1398    8.0878 H   0  0  0  0  0  0  0  0  0  0  0  0
  1  2  1  0
  2  3  1  0
  3  4  1  0
  4  5  1  0
  5  6  1  0
  4  7  1  0
  7  8  1  0
  8  9  2  0
  9 10  1  0
 10 11  2  0
 11 12  1  0
 12 13  2  0
 13 14  1  0
 14 15  1  0
 15 16  1  0
 16 17  1  0
 17 18  1  0
 18 19  1  0
 19 20  1  0
 20 21  1  0
 21 22  1  0
 22 23  1  0
 13 24  1  0
 24 25  1  0
 25 26  2  0
 26  8  1  0
 25 10  1  0
 23 18  1  0
  1 27  1  0
  2 28  1  0
  2 29  1  0
  3 30  1  0
  3 31  1  0
  4 32  1  0
  5 33  1  0
  5 34  1  0
  7 35  1  0
  7 36  1  0
  9 37  1  0
 11 38  1  0
 12 39  1  0
 14 40  1  0
 14 41  1  0
 15 42  1  0
 15 43  1  0
 16 44  1  0
 16 45  1  0
 17 46  1  0
 17 47  1  0
 19 48  1  0
 19 49  1  0
 20 50  1  0
 20 51  1  0
 22 52  1  0
 22 53  1  0
 23 54  1  0
 23 55  1  0
M  END
>  <Energy>  (559) 
170.11178405758469

>  <compound_id>  (559) 
2676

>  <target_id>  (559) 
1

>  <reference_id>  (559) 
179

>  <inspiration_ids>  (559) 
[179, 65]

>  <energy_score>  (559) 
5.209332890468772

>  <distance_score>  (559) 
1.1551486789231815

>  <path>  (559) 
/opt/xchem-fragalysis-2/maxwin/BulkDock/SCRATCH/505736/C2676-P179/C2676-P179.minimised.mol

>  <scratch_subdir>  (559) 
/opt/xchem-fragalysis-2/maxwin/BulkDock/SCRATCH/505736/C2676-P179

>  <fragmenstein_runtime>  (559) 
3.3636133670806885

>  <fragmenstein_outcome>  (559) 
too moved

>  <fragmenstein_mode>  (559) 
expansion

>  <fragmenstein_error>  (559) 


$$$$
C2676-P65
     RDKit          3D

 55 57  0  0  0  0  0  0  0  0999 V2000
   -7.2053   -4.0622   -2.1202 O   0  0  0  0  0  0  0  0  0  0  0  0
   -6.3557   -4.1032   -0.9802 C   0  0  0  0  0  0  0  0  0  0  0  0
   -7.1883   -3.7639    0.2520 C   0  0  0  0  0  0  0  0  0  0  0  0
   -6.3660   -3.6942    1.5533 C   0  0  0  0  0  0  0  0  0  0  0  0
   -5.7943   -5.0667    1.9062 C   0  0  0  0  0  0  0  0  0  0  0  0
   -5.0820   -4.9890    3.0563 F   0  0  0  0  0  0  0  0  0  0  0  0
   -7.2329   -3.1338    2.6891 C   0  0  0  0  0  0  0  0  0  0  0  0
   -6.5435   -2.7476    3.9783 C   0  0  0  0  0  0  0  0  0  0  0  0
   -6.8766   -3.2581    5.1845 C   0  0  0  0  0  0  0  0  0  0  0  0
   -6.6676   -2.1821    6.0974 C   0  0  0  0  0  0  0  0  0  0  0  0
   -7.2725   -1.9393    7.2611 C   0  0  0  0  0  0  0  0  0  0  0  0
   -7.4528   -0.5733    7.7122 C   0  0  0  0  0  0  0  0  0  0  0  0
   -6.8794    0.5106    7.1494 C   0  0  0  0  0  0  0  0  0  0  0  0
   -7.3039    1.9433    7.3902 C   0  0  0  0  0  0  0  0  0  0  0  0
   -8.3465    2.2893    8.4532 C   0  0  0  0  0  0  0  0  0  0  0  0
   -9.7672    1.8259    8.1651 C   0  0  0  0  0  0  0  0  0  0  0  0
  -10.4377    1.3840    9.4710 C   0  0  0  0  0  0  0  0  0  0  0  0
  -11.8539    1.1013    9.2667 N   0  0  0  0  0  0  0  0  0  0  0  0
  -12.3722    0.2197   10.3297 C   0  0  0  0  0  0  0  0  0  0  0  0
  -13.9057    0.1805   10.3053 C   0  0  0  0  0  0  0  0  0  0  0  0
  -14.5158    1.4575   10.5399 O   0  0  0  0  0  0  0  0  0  0  0  0
  -13.6220    2.5554   10.3372 C   0  0  0  0  0  0  0  0  0  0  0  0
  -12.6697    2.3292    9.1550 C   0  0  0  0  0  0  0  0  0  0  0  0
   -5.5617    0.3346    5.9881 S   0  0  0  0  0  0  0  0  0  0  0  0
   -5.9909   -1.1659    5.2866 C   0  0  0  0  0  0  0  0  0  0  0  0
   -5.8695   -1.5231    4.0377 N   0  0  0  0  0  0  0  0  0  0  0  0
   -6.6540   -4.2941   -2.8879 H   0  0  0  0  0  0  0  0  0  0  0  0
   -5.9290   -5.1075   -0.9160 H   0  0  0  0  0  0  0  0  0  0  0  0
   -5.5497   -3.3764   -1.1206 H   0  0  0  0  0  0  0  0  0  0  0  0
   -8.0018   -4.4939    0.3529 H   0  0  0  0  0  0  0  0  0  0  0  0
   -7.6845   -2.8004    0.0746 H   0  0  0  0  0  0  0  0  0  0  0  0
   -5.5601   -2.9750    1.3969 H   0  0  0  0  0  0  0  0  0  0  0  0
   -5.1251   -5.4523    1.1343 H   0  0  0  0  0  0  0  0  0  0  0  0
   -6.5889   -5.8024    2.0548 H   0  0  0  0  0  0  0  0  0  0  0  0
   -7.7260   -2.2215    2.3224 H   0  0  0  0  0  0  0  0  0  0  0  0
   -8.0584   -3.8229    2.8940 H   0  0  0  0  0  0  0  0  0  0  0  0
   -7.5294   -4.0835    5.3926 H   0  0  0  0  0  0  0  0  0  0  0  0
   -7.8908   -2.6972    7.7349 H   0  0  0  0  0  0  0  0  0  0  0  0
   -8.2350   -0.4634    8.4568 H   0  0  0  0  0  0  0  0  0  0  0  0
   -6.4032    2.5215    7.6361 H   0  0  0  0  0  0  0  0  0  0  0  0
   -7.6642    2.3513    6.4351 H   0  0  0  0  0  0  0  0  0  0  0  0
   -8.0428    1.9174    9.4261 H   0  0  0  0  0  0  0  0  0  0  0  0
   -8.3661    3.3822    8.5634 H   0  0  0  0  0  0  0  0  0  0  0  0
   -9.7912    0.9989    7.4470 H   0  0  0  0  0  0  0  0  0  0  0  0
  -10.3120    2.6517    7.6929 H   0  0  0  0  0  0  0  0  0  0  0  0
   -9.9252    0.4766    9.8166 H   0  0  0  0  0  0  0  0  0  0  0  0
  -10.3027    2.1374   10.2586 H   0  0  0  0  0  0  0  0  0  0  0  0
  -12.0389    0.5667   11.3168 H   0  0  0  0  0  0  0  0  0  0  0  0
  -11.9798   -0.7906   10.1801 H   0  0  0  0  0  0  0  0  0  0  0  0
  -14.2668   -0.1894    9.3387 H   0  0  0  0  0  0  0  0  0  0  0  0
  -14.2787   -0.5014   11.0755 H   0  0  0  0  0  0  0  0  0  0  0  0
  -13.0633    2.7282   11.2647 H   0  0  0  0  0  0  0  0  0  0  0  0
  -14.2334    3.4460   10.1590 H   0  0  0  0  0  0  0  0  0  0  0  0
  -12.0585    3.2279    9.0142 H   0  0  0  0  0  0  0  0  0  0  0  0
  -13.2747    2.2176    8.2467 H   0  0  0  0  0  0  0  0  0  0  0  0
  1  2  1  0
  2  3  1  0
  3  4  1  0
  4  5  1  0
  5  6  1  0
  4  7  1  0
  7  8  1  0
  8  9  2  0
  9 10  1  0
 10 11  2  0
 11 12  1  0
 12 13  2  0
 13 14  1  0
 14 15  1  0
 15 16  1  0
 16 17  1  0
 17 18  1  0
 18 19  1  0
 19 20  1  0
 20 21  1  0
 21 22  1  0
 22 23  1  0
 13 24  1  0
 24 25  1  0
 25 26  2  0
 26  8  1  0
 25 10  1  0
 23 18  1  0
  1 27  1  0
  2 28  1  0
  2 29  1  0
  3 30  1  0
  3 31  1  0
  4 32  1  0
  5 33  1  0
  5 34  1  0
  7 35  1  0
  7 36  1  0
  9 37  1  0
 11 38  1  0
 12 39  1  0
 14 40  1  0
 14 41  1  0
 15 42  1  0
 15 43  1  0
 16 44  1  0
 16 45  1  0
 17 46  1  0
 17 47  1  0
 19 48  1  0
 19 49  1  0
 20 50  1  0
 20 51  1  0
 22 52  1  0
 22 53  1  0
 23 54  1  0
 23 55  1  0
M  END
>  <Energy>  (560) 
138.50704425514866

>  <compound_id>  (560) 
2676

>  <target_id>  (560) 
1

>  <reference_id>  (560) 
65

>  <inspiration_ids>  (560) 
[179, 65]

>  <energy_score>  (560) 
-26.395406911966063

>  <distance_score>  (560) 
1.1607561038037226

>  <path>  (560) 
/opt/xchem-fragalysis-2/maxwin/BulkDock/SCRATCH/505736/C2676-P65/C2676-P65.minimised.mol

>  <scratch_subdir>  (560) 
/opt/xchem-fragalysis-2/maxwin/BulkDock/SCRATCH/505736/C2676-P65

>  <fragmenstein_runtime>  (560) 
3.5641109943389893

>  <fragmenstein_outcome>  (560) 
too moved

>  <fragmenstein_mode>  (560) 
expansion

>  <fragmenstein_error>  (560) 


$$$$
C2679-P179
     RDKit          3D

 57 58  0  0  0  0  0  0  0  0999 V2000
   -8.2081    0.1553    4.7020 N   0  0  0  0  0  0  0  0  0  0  0  0
   -8.7826   -0.8169    5.6068 C   0  0  0  0  0  0  0  0  0  0  0  0
  -10.1790   -0.3616    5.9991 C   0  0  0  0  0  0  0  0  0  0  0  0
  -10.8442   -1.2217    7.0779 C   0  0  0  0  0  0  0  0  0  0  0  0
  -12.0768   -0.5875    7.7561 C   0  0  0  0  0  0  0  0  0  0  0  0
  -13.1351   -0.2910    6.7775 N   0  0  0  0  0  0  0  0  0  0  0  0
  -14.4664   -0.4611    7.4388 N   0  0  0  0  0  0  0  0  0  0  0  0
  -12.9281    1.1430    6.5164 C   0  0  0  0  0  0  0  0  0  0  0  0
  -12.3752    1.7472    7.6677 O   0  0  0  0  0  0  0  0  0  0  0  0
  -11.7428    0.6695    8.4090 N   0  0  0  0  0  0  0  0  0  0  0  0
  -12.3332    0.6699    9.7225 O   0  0  0  0  0  0  0  0  0  0  0  0
  -11.2555    0.9022   10.6099 C   0  0  0  0  0  0  0  0  0  0  0  0
  -10.4814    2.1919   10.2957 C   0  0  0  0  0  0  0  0  0  0  0  0
   -9.4485    2.1782    9.1315 C   0  0  0  0  0  0  0  0  0  0  0  0
   -8.4587    0.9762    9.0437 C   0  0  0  0  0  0  0  0  0  0  0  0
   -7.2896    1.2112    8.0389 C   0  0  0  0  0  0  0  0  0  0  0  0
   -6.2764    0.0385    7.9336 C   0  0  0  0  0  0  0  0  0  0  0  0
   -5.4643   -0.0058    9.0164 F   0  0  0  0  0  0  0  0  0  0  0  0
   -5.3175    0.1371    6.7510 C   0  0  0  0  0  0  0  0  0  0  0  0
   -4.3887   -1.0802    6.6133 C   0  0  0  0  0  0  0  0  0  0  0  0
   -5.0867   -2.4378    6.5641 C   0  0  0  0  0  0  0  0  0  0  0  0
   -6.0316   -2.6035    5.3818 C   0  0  0  0  0  0  0  0  0  0  0  0
   -7.3861   -3.1857    5.7899 C   0  0  0  0  0  0  0  0  0  0  0  0
   -8.7409   -2.4526    4.8135 S   0  0  0  0  0  0  0  0  0  0  0  0
   -8.0879    1.0644    5.1308 H   0  0  0  0  0  0  0  0  0  0  0  0
   -7.3293   -0.1684    4.3205 H   0  0  0  0  0  0  0  0  0  0  0  0
   -8.1902   -0.8722    6.5072 H   0  0  0  0  0  0  0  0  0  0  0  0
  -10.0996    0.6705    6.3582 H   0  0  0  0  0  0  0  0  0  0  0  0
  -10.8203   -0.3362    5.1082 H   0  0  0  0  0  0  0  0  0  0  0  0
  -11.1532   -2.1763    6.6311 H   0  0  0  0  0  0  0  0  0  0  0  0
  -10.1120   -1.4819    7.8500 H   0  0  0  0  0  0  0  0  0  0  0  0
  -12.4217   -1.3297    8.4871 H   0  0  0  0  0  0  0  0  0  0  0  0
  -14.5505   -1.4106    7.8311 H   0  0  0  0  0  0  0  0  0  0  0  0
  -14.4961    0.1343    8.2784 H   0  0  0  0  0  0  0  0  0  0  0  0
  -13.8627    1.6539    6.2546 H   0  0  0  0  0  0  0  0  0  0  0  0
  -12.2530    1.3012    5.6701 H   0  0  0  0  0  0  0  0  0  0  0  0
  -11.6878    0.9774   11.6131 H   0  0  0  0  0  0  0  0  0  0  0  0
  -10.6070    0.0221   10.5834 H   0  0  0  0  0  0  0  0  0  0  0  0
   -9.9346    2.4866   11.1957 H   0  0  0  0  0  0  0  0  0  0  0  0
  -11.1950    3.0022   10.0984 H   0  0  0  0  0  0  0  0  0  0  0  0
   -8.8735    3.1079    9.2124 H   0  0  0  0  0  0  0  0  0  0  0  0
   -9.9465    2.2890    8.1644 H   0  0  0  0  0  0  0  0  0  0  0  0
   -9.0058    0.0879    8.7314 H   0  0  0  0  0  0  0  0  0  0  0  0
   -8.0610    0.7257   10.0275 H   0  0  0  0  0  0  0  0  0  0  0  0
   -6.7537    2.1299    8.2845 H   0  0  0  0  0  0  0  0  0  0  0  0
   -7.7370    1.4023    7.0643 H   0  0  0  0  0  0  0  0  0  0  0  0
   -6.8263   -0.9011    7.9395 H   0  0  0  0  0  0  0  0  0  0  0  0
   -5.8560    0.3022    5.8196 H   0  0  0  0  0  0  0  0  0  0  0  0
   -4.6842    1.0200    6.8967 H   0  0  0  0  0  0  0  0  0  0  0  0
   -3.7879   -0.9542    5.7053 H   0  0  0  0  0  0  0  0  0  0  0  0
   -3.6851   -1.0842    7.4556 H   0  0  0  0  0  0  0  0  0  0  0  0
   -5.6197   -2.5892    7.4957 H   0  0  0  0  0  0  0  0  0  0  0  0
   -4.3208   -3.2206    6.5242 H   0  0  0  0  0  0  0  0  0  0  0  0
   -5.5679   -3.2899    4.6603 H   0  0  0  0  0  0  0  0  0  0  0  0
   -6.1197   -1.6654    4.8358 H   0  0  0  0  0  0  0  0  0  0  0  0
   -7.6173   -3.0330    6.8487 H   0  0  0  0  0  0  0  0  0  0  0  0
   -7.3738   -4.2653    5.6356 H   0  0  0  0  0  0  0  0  0  0  0  0
  1  2  1  0
  2  3  1  0
  3  4  1  0
  4  5  1  0
  5  6  1  0
  6  7  1  0
  6  8  1  0
  8  9  1  0
  9 10  1  0
 10 11  1  0
 11 12  1  0
 12 13  1  0
 13 14  1  0
 14 15  1  0
 15 16  1  0
 16 17  1  0
 17 18  1  0
 17 19  1  0
 19 20  1  0
 20 21  1  0
 21 22  1  0
 22 23  1  0
 23 24  1  0
 24  2  1  0
 10  5  1  0
  1 25  1  0
  1 26  1  0
  2 27  1  0
  3 28  1  0
  3 29  1  0
  4 30  1  0
  4 31  1  0
  5 32  1  0
  7 33  1  0
  7 34  1  0
  8 35  1  0
  8 36  1  0
 12 37  1  0
 12 38  1  0
 13 39  1  0
 13 40  1  0
 14 41  1  0
 14 42  1  0
 15 43  1  0
 15 44  1  0
 16 45  1  0
 16 46  1  0
 17 47  1  0
 19 48  1  0
 19 49  1  0
 20 50  1  0
 20 51  1  0
 21 52  1  0
 21 53  1  0
 22 54  1  0
 22 55  1  0
 23 56  1  0
 23 57  1  0
M  END
>  <Energy>  (561) 
90.20868250587354

>  <compound_id>  (561) 
2679

>  <target_id>  (561) 
1

>  <reference_id>  (561) 
179

>  <inspiration_ids>  (561) 
[179, 91]

>  <energy_score>  (561) 
-66.10137790893316

>  <distance_score>  (561) 
2.856580885109208

>  <path>  (561) 
/opt/xchem-fragalysis-2/maxwin/BulkDock/SCRATCH/505736/C2679-P179/C2679-P179.minimised.mol

>  <scratch_subdir>  (561) 
/opt/xchem-fragalysis-2/maxwin/BulkDock/SCRATCH/505736/C2679-P179

>  <fragmenstein_runtime>  (561) 
3.2111570835113525

>  <fragmenstein_outcome>  (561) 
too moved

>  <fragmenstein_mode>  (561) 
expansion

>  <fragmenstein_error>  (561) 


$$$$
C2680-P179
     RDKit          3D

 44 48  0  0  0  0  0  0  0  0999 V2000
  -10.8170   -2.8474    5.5837 C   0  0  0  0  0  0  0  0  0  0  0  0
   -9.3278   -3.1062    5.4816 C   0  0  0  0  0  0  0  0  0  0  0  0
   -8.7822   -3.9215    6.6355 C   0  0  0  0  0  0  0  0  0  0  0  0
   -7.3103   -3.6520    6.4984 C   0  0  0  0  0  0  0  0  0  0  0  0
   -7.2467   -2.2395    6.2901 O   0  0  0  0  0  0  0  0  0  0  0  0
   -8.3536   -1.9230    5.4373 C   0  0  0  0  0  0  0  0  0  0  0  0
   -8.9611   -0.5443    5.6068 C   0  0  0  0  0  0  0  0  0  0  0  0
   -9.5185   -0.0085    4.6437 O   0  0  0  0  0  0  0  0  0  0  0  0
   -8.7220    0.2715    6.8522 C   0  0  0  0  0  0  0  0  0  0  0  0
   -7.3704    0.8067    6.9796 C   0  0  0  0  0  0  0  0  0  0  0  0
   -7.1474    2.0325    7.4723 C   0  0  0  0  0  0  0  0  0  0  0  0
   -8.2500    2.8248    7.8671 C   0  0  0  0  0  0  0  0  0  0  0  0
   -8.3385    4.0849    8.2303 N   0  0  0  0  0  0  0  0  0  0  0  0
   -9.6646    4.3757    8.4178 N   0  0  0  0  0  0  0  0  0  0  0  0
  -10.3505    3.2910    8.1416 C   0  0  0  0  0  0  0  0  0  0  0  0
   -9.5085    2.2358    7.8759 N   0  0  0  0  0  0  0  0  0  0  0  0
   -9.7513    0.8957    7.4977 C   0  0  0  0  0  0  0  0  0  0  0  0
  -11.3148    0.1546    7.6399 S   0  0  0  0  0  0  0  0  0  0  0  0
  -12.0499    0.7029    9.1012 C   0  0  0  0  0  0  0  0  0  0  0  0
  -13.3533    0.7445    9.2611 N   0  0  0  0  0  0  0  0  0  0  0  0
  -13.5584    1.6476   10.2622 C   0  0  0  0  0  0  0  0  0  0  0  0
  -14.7523    2.2213   10.7219 C   0  0  0  0  0  0  0  0  0  0  0  0
  -14.6698    3.2686   11.6461 C   0  0  0  0  0  0  0  0  0  0  0  0
  -13.4292    3.7063   12.1059 C   0  0  0  0  0  0  0  0  0  0  0  0
  -13.3861    4.7687   12.9227 F   0  0  0  0  0  0  0  0  0  0  0  0
  -12.2307    3.0993   11.7181 C   0  0  0  0  0  0  0  0  0  0  0  0
  -12.3424    2.0659   10.7924 C   0  0  0  0  0  0  0  0  0  0  0  0
  -11.4060    1.2798   10.1584 N   0  0  0  0  0  0  0  0  0  0  0  0
  -11.1606   -2.1480    4.8163 H   0  0  0  0  0  0  0  0  0  0  0  0
  -11.0953   -2.4700    6.5680 H   0  0  0  0  0  0  0  0  0  0  0  0
  -11.3647   -3.7830    5.4371 H   0  0  0  0  0  0  0  0  0  0  0  0
   -9.1778   -3.6706    4.5519 H   0  0  0  0  0  0  0  0  0  0  0  0
   -9.1409   -3.5236    7.5914 H   0  0  0  0  0  0  0  0  0  0  0  0
   -9.0281   -4.9814    6.5792 H   0  0  0  0  0  0  0  0  0  0  0  0
   -6.8708   -4.1557    5.6310 H   0  0  0  0  0  0  0  0  0  0  0  0
   -6.7456   -3.9274    7.3785 H   0  0  0  0  0  0  0  0  0  0  0  0
   -7.9138   -1.8933    4.4291 H   0  0  0  0  0  0  0  0  0  0  0  0
   -6.5375    0.1978    6.6370 H   0  0  0  0  0  0  0  0  0  0  0  0
   -6.1504    2.4523    7.5382 H   0  0  0  0  0  0  0  0  0  0  0  0
  -11.4288    3.2319    8.0949 H   0  0  0  0  0  0  0  0  0  0  0  0
  -15.7046    1.8980   10.3167 H   0  0  0  0  0  0  0  0  0  0  0  0
  -15.5707    3.7685   11.9876 H   0  0  0  0  0  0  0  0  0  0  0  0
  -11.2796    3.4504   12.1000 H   0  0  0  0  0  0  0  0  0  0  0  0
  -10.4085    1.3360   10.2974 H   0  0  0  0  0  0  0  0  0  0  0  0
  1  2  1  0
  2  3  1  0
  3  4  1  0
  4  5  1  0
  5  6  1  0
  6  7  1  0
  7  8  2  0
  7  9  1  0
  9 10  1  0
 10 11  2  0
 11 12  1  0
 12 13  2  0
 13 14  1  0
 14 15  2  0
 15 16  1  0
 16 17  1  0
 17 18  1  0
 18 19  1  0
 19 20  2  0
 20 21  1  0
 21 22  2  0
 22 23  1  0
 23 24  2  0
 24 25  1  0
 24 26  1  0
 26 27  2  0
 27 28  1  0
  6  2  1  0
 17  9  2  0
 28 19  1  0
 16 12  1  0
 27 21  1  0
  1 29  1  0
  1 30  1  0
  1 31  1  0
  2 32  1  0
  3 33  1  0
  3 34  1  0
  4 35  1  0
  4 36  1  0
  6 37  1  0
 10 38  1  0
 11 39  1  0
 15 40  1  0
 22 41  1  0
 23 42  1  0
 26 43  1  0
 28 44  1  0
M  END
>  <Energy>  (562) 
103.75135755111057

>  <compound_id>  (562) 
2680

>  <target_id>  (562) 
1

>  <reference_id>  (562) 
179

>  <inspiration_ids>  (562) 
[179, 95]

>  <energy_score>  (562) 
-32.40940198985419

>  <distance_score>  (562) 
1.7918870882405284

>  <path>  (562) 
/opt/xchem-fragalysis-2/maxwin/BulkDock/SCRATCH/505736/C2680-P179/C2680-P179.minimised.mol

>  <scratch_subdir>  (562) 
/opt/xchem-fragalysis-2/maxwin/BulkDock/SCRATCH/505736/C2680-P179

>  <fragmenstein_runtime>  (562) 
11.216092109680176

>  <fragmenstein_outcome>  (562) 
too moved

>  <fragmenstein_mode>  (562) 
expansion

>  <fragmenstein_error>  (562) 


$$$$
C2680-P95
     RDKit          3D

 44 48  0  0  0  0  0  0  0  0999 V2000
  -10.6020   -2.5207    6.7481 C   0  0  0  0  0  0  0  0  0  0  0  0
   -9.3267   -2.9938    6.0909 C   0  0  0  0  0  0  0  0  0  0  0  0
   -8.3779   -3.6810    7.0507 C   0  0  0  0  0  0  0  0  0  0  0  0
   -7.0519   -3.5223    6.3509 C   0  0  0  0  0  0  0  0  0  0  0  0
   -7.0870   -2.2264    5.7519 O   0  0  0  0  0  0  0  0  0  0  0  0
   -8.4607   -1.9141    5.4535 C   0  0  0  0  0  0  0  0  0  0  0  0
   -8.7373   -0.4632    5.8275 C   0  0  0  0  0  0  0  0  0  0  0  0
   -8.9493    0.3820    4.9555 O   0  0  0  0  0  0  0  0  0  0  0  0
   -8.5903   -0.0560    7.2919 C   0  0  0  0  0  0  0  0  0  0  0  0
   -7.2361    0.4726    7.5239 C   0  0  0  0  0  0  0  0  0  0  0  0
   -7.0339    1.7896    7.6943 C   0  0  0  0  0  0  0  0  0  0  0  0
   -8.1491    2.6614    7.7456 C   0  0  0  0  0  0  0  0  0  0  0  0
   -8.2596    3.9694    7.8211 N   0  0  0  0  0  0  0  0  0  0  0  0
   -9.6020    4.2758    7.8539 N   0  0  0  0  0  0  0  0  0  0  0  0
  -10.2710    3.1463    7.7935 C   0  0  0  0  0  0  0  0  0  0  0  0
   -9.4074    2.0834    7.7907 N   0  0  0  0  0  0  0  0  0  0  0  0
   -9.6308    0.6879    7.7861 C   0  0  0  0  0  0  0  0  0  0  0  0
  -10.1927    0.0896    9.3916 S   0  0  0  0  0  0  0  0  0  0  0  0
  -11.6798    0.9019    9.6074 C   0  0  0  0  0  0  0  0  0  0  0  0
  -12.8378    0.6164    9.0710 N   0  0  0  0  0  0  0  0  0  0  0  0
  -13.6935    1.5710    9.5568 C   0  0  0  0  0  0  0  0  0  0  0  0
  -15.0569    1.7731    9.2954 C   0  0  0  0  0  0  0  0  0  0  0  0
  -15.6974    2.8613    9.9013 C   0  0  0  0  0  0  0  0  0  0  0  0
  -14.9880    3.7193   10.7398 C   0  0  0  0  0  0  0  0  0  0  0  0
  -15.6301    4.7525   11.3026 F   0  0  0  0  0  0  0  0  0  0  0  0
  -13.6311    3.5383   11.0185 C   0  0  0  0  0  0  0  0  0  0  0  0
  -13.0254    2.4434   10.4138 C   0  0  0  0  0  0  0  0  0  0  0  0
  -11.7485    1.9551   10.4694 N   0  0  0  0  0  0  0  0  0  0  0  0
  -11.1551   -1.8221    6.1139 H   0  0  0  0  0  0  0  0  0  0  0  0
  -10.4024   -2.0352    7.6957 H   0  0  0  0  0  0  0  0  0  0  0  0
  -11.2450   -3.3681    6.9829 H   0  0  0  0  0  0  0  0  0  0  0  0
   -9.5975   -3.7101    5.3035 H   0  0  0  0  0  0  0  0  0  0  0  0
   -8.3567   -3.1547    8.0111 H   0  0  0  0  0  0  0  0  0  0  0  0
   -8.6275   -4.7275    7.2387 H   0  0  0  0  0  0  0  0  0  0  0  0
   -6.9171   -4.2622    5.5571 H   0  0  0  0  0  0  0  0  0  0  0  0
   -6.1993   -3.5785    7.0279 H   0  0  0  0  0  0  0  0  0  0  0  0
   -8.5684   -1.9780    4.3627 H   0  0  0  0  0  0  0  0  0  0  0  0
   -6.4055   -0.2263    7.4680 H   0  0  0  0  0  0  0  0  0  0  0  0
   -6.0463    2.2137    7.7908 H   0  0  0  0  0  0  0  0  0  0  0  0
  -11.3449    3.0437    7.7321 H   0  0  0  0  0  0  0  0  0  0  0  0
  -15.5896    1.1006    8.6316 H   0  0  0  0  0  0  0  0  0  0  0  0
  -16.7512    3.0464    9.7164 H   0  0  0  0  0  0  0  0  0  0  0  0
  -13.1017    4.2175   11.6756 H   0  0  0  0  0  0  0  0  0  0  0  0
  -10.9751    2.3355   10.9959 H   0  0  0  0  0  0  0  0  0  0  0  0
  1  2  1  0
  2  3  1  0
  3  4  1  0
  4  5  1  0
  5  6  1  0
  6  7  1  0
  7  8  2  0
  7  9  1  0
  9 10  1  0
 10 11  2  0
 11 12  1  0
 12 13  2  0
 13 14  1  0
 14 15  2  0
 15 16  1  0
 16 17  1  0
 17 18  1  0
 18 19  1  0
 19 20  2  0
 20 21  1  0
 21 22  2  0
 22 23  1  0
 23 24  2  0
 24 25  1  0
 24 26  1  0
 26 27  2  0
 27 28  1  0
  6  2  1  0
 17  9  2  0
 28 19  1  0
 16 12  1  0
 27 21  1  0
  1 29  1  0
  1 30  1  0
  1 31  1  0
  2 32  1  0
  3 33  1  0
  3 34  1  0
  4 35  1  0
  4 36  1  0
  6 37  1  0
 10 38  1  0
 11 39  1  0
 15 40  1  0
 22 41  1  0
 23 42  1  0
 26 43  1  0
 28 44  1  0
M  END
>  <Energy>  (563) 
129.65211408662589

>  <compound_id>  (563) 
2680

>  <target_id>  (563) 
1

>  <reference_id>  (563) 
95

>  <inspiration_ids>  (563) 
[179, 95]

>  <energy_score>  (563) 
-6.508645454336886

>  <distance_score>  (563) 
1.673542042640799

>  <path>  (563) 
/opt/xchem-fragalysis-2/maxwin/BulkDock/SCRATCH/505736/C2680-P95/C2680-P95.minimised.mol

>  <scratch_subdir>  (563) 
/opt/xchem-fragalysis-2/maxwin/BulkDock/SCRATCH/505736/C2680-P95

>  <fragmenstein_runtime>  (563) 
10.67765188217163

>  <fragmenstein_outcome>  (563) 
too moved

>  <fragmenstein_mode>  (563) 
expansion

>  <fragmenstein_error>  (563) 


$$$$
C435-P179
     RDKit          3D

 60 65  0  0  0  0  0  0  0  0999 V2000
  -16.7885    0.7606   13.5403 C   0  0  0  0  0  0  0  0  0  0  0  0
  -15.5210    0.9200   12.7597 C   0  0  0  0  0  0  0  0  0  0  0  0
  -15.2557    0.0433   11.7136 C   0  0  0  0  0  0  0  0  0  0  0  0
  -14.0476    0.1603   11.0497 C   0  0  0  0  0  0  0  0  0  0  0  0
  -13.1525    1.1400   11.4527 C   0  0  0  0  0  0  0  0  0  0  0  0
  -13.5245    2.0384   12.4376 C   0  0  0  0  0  0  0  0  0  0  0  0
  -12.7351    3.1444   12.6899 N   0  0  0  0  0  0  0  0  0  0  0  0
  -11.3065    3.5006   12.1891 C   0  0  0  0  0  0  0  0  0  0  0  0
  -10.5509    2.8780   11.5504 O   0  0  0  0  0  0  0  0  0  0  0  0
  -10.9944    4.9572   12.5774 C   0  0  0  0  0  0  0  0  0  0  0  0
   -9.5230    5.0667   13.0190 C   0  0  0  0  0  0  0  0  0  0  0  0
   -8.8982    6.1440   12.1549 C   0  0  0  0  0  0  0  0  0  0  0  0
  -10.1092    6.9296   11.7206 C   0  0  0  0  0  0  0  0  0  0  0  0
  -11.0036    5.8303   11.3861 N   0  0  0  0  0  0  0  0  0  0  0  0
  -12.3110    6.2426   10.8900 C   0  0  0  0  0  0  0  0  0  0  0  0
  -12.2625    7.1103    9.7214 O   0  0  0  0  0  0  0  0  0  0  0  0
  -11.7810    6.4524    8.6129 C   0  0  0  0  0  0  0  0  0  0  0  0
  -12.6064    5.6075    7.8665 C   0  0  0  0  0  0  0  0  0  0  0  0
  -12.0799    4.7962    6.8479 C   0  0  0  0  0  0  0  0  0  0  0  0
  -10.6902    4.8231    6.6993 C   0  0  0  0  0  0  0  0  0  0  0  0
   -9.7988    3.9844    6.0580 N   0  0  0  0  0  0  0  0  0  0  0  0
   -8.5734    4.2340    6.6249 C   0  0  0  0  0  0  0  0  0  0  0  0
   -7.2905    3.0835    6.7289 S   0  0  0  0  0  0  0  0  0  0  0  0
   -8.0445    1.6496    7.3912 C   0  0  0  0  0  0  0  0  0  0  0  0
   -7.4859    0.4604    7.0650 C   0  0  0  0  0  0  0  0  0  0  0  0
   -8.1232   -0.7866    7.4568 C   0  0  0  0  0  0  0  0  0  0  0  0
   -9.3308   -0.7951    8.0451 C   0  0  0  0  0  0  0  0  0  0  0  0
   -9.9563    0.4349    8.3534 C   0  0  0  0  0  0  0  0  0  0  0  0
  -11.1714    0.7292    8.7542 N   0  0  0  0  0  0  0  0  0  0  0  0
  -11.2079    2.0804    8.9774 N   0  0  0  0  0  0  0  0  0  0  0  0
   -9.9941    2.5453    8.7816 C   0  0  0  0  0  0  0  0  0  0  0  0
   -9.2344    1.6082    8.1454 N   0  0  0  0  0  0  0  0  0  0  0  0
   -8.5471    5.4032    7.2151 N   0  0  0  0  0  0  0  0  0  0  0  0
   -9.8708    5.7073    7.3957 C   0  0  0  0  0  0  0  0  0  0  0  0
  -10.4338    6.6226    8.2857 C   0  0  0  0  0  0  0  0  0  0  0  0
  -14.6901    1.9365   13.1110 N   0  0  0  0  0  0  0  0  0  0  0  0
  -17.6531    0.9640   12.9008 H   0  0  0  0  0  0  0  0  0  0  0  0
  -16.8161    1.4584   14.3836 H   0  0  0  0  0  0  0  0  0  0  0  0
  -16.8690   -0.2557   13.9383 H   0  0  0  0  0  0  0  0  0  0  0  0
  -15.9605   -0.7325   11.4337 H   0  0  0  0  0  0  0  0  0  0  0  0
  -13.7943   -0.4973   10.2225 H   0  0  0  0  0  0  0  0  0  0  0  0
  -12.2006    1.2216   10.9502 H   0  0  0  0  0  0  0  0  0  0  0  0
  -13.0776    3.8840   13.2904 H   0  0  0  0  0  0  0  0  0  0  0  0
  -11.6515    5.3399   13.3633 H   0  0  0  0  0  0  0  0  0  0  0  0
   -9.4810    5.4134   14.0554 H   0  0  0  0  0  0  0  0  0  0  0  0
   -8.9501    4.1402   12.9549 H   0  0  0  0  0  0  0  0  0  0  0  0
   -8.3865    5.7015   11.2918 H   0  0  0  0  0  0  0  0  0  0  0  0
   -8.1763    6.7524   12.7076 H   0  0  0  0  0  0  0  0  0  0  0  0
  -10.5056    7.5429   12.5405 H   0  0  0  0  0  0  0  0  0  0  0  0
   -9.8671    7.5959   10.8932 H   0  0  0  0  0  0  0  0  0  0  0  0
  -12.9337    5.3704   10.6549 H   0  0  0  0  0  0  0  0  0  0  0  0
  -12.8460    6.8082   11.6623 H   0  0  0  0  0  0  0  0  0  0  0  0
  -13.6618    5.5292    8.1150 H   0  0  0  0  0  0  0  0  0  0  0  0
  -12.7040    4.0768    6.3289 H   0  0  0  0  0  0  0  0  0  0  0  0
  -10.0537    3.1414    5.5679 H   0  0  0  0  0  0  0  0  0  0  0  0
   -6.5798    0.3838    6.4700 H   0  0  0  0  0  0  0  0  0  0  0  0
   -7.6151   -1.7182    7.2264 H   0  0  0  0  0  0  0  0  0  0  0  0
   -9.8334   -1.7176    8.3087 H   0  0  0  0  0  0  0  0  0  0  0  0
   -9.6455    3.5291    9.0581 H   0  0  0  0  0  0  0  0  0  0  0  0
   -9.7903    7.2915    8.8366 H   0  0  0  0  0  0  0  0  0  0  0  0
  1  2  1  0
  2  3  2  0
  3  4  1  0
  4  5  2  0
  5  6  1  0
  6  7  1  0
  7  8  1  0
  8  9  2  0
  8 10  1  0
 10 11  1  0
 11 12  1  0
 12 13  1  0
 13 14  1  0
 14 15  1  0
 15 16  1  0
 16 17  1  0
 17 18  2  0
 18 19  1  0
 19 20  2  0
 20 21  1  0
 21 22  1  0
 22 23  1  0
 23 24  1  0
 24 25  2  0
 25 26  1  0
 26 27  2  0
 27 28  1  0
 28 29  2  0
 29 30  1  0
 30 31  2  0
 31 32  1  0
 22 33  2  0
 33 34  1  0
 34 35  2  0
  6 36  2  0
 36  2  1  0
 14 10  1  0
 35 17  1  0
 34 20  1  0
 32 24  1  0
 32 28  1  0
  1 37  1  0
  1 38  1  0
  1 39  1  0
  3 40  1  0
  4 41  1  0
  5 42  1  0
  7 43  1  0
 10 44  1  0
 11 45  1  0
 11 46  1  0
 12 47  1  0
 12 48  1  0
 13 49  1  0
 13 50  1  0
 15 51  1  0
 15 52  1  0
 18 53  1  0
 19 54  1  0
 21 55  1  0
 25 56  1  0
 26 57  1  0
 27 58  1  0
 31 59  1  0
 35 60  1  0
M  END
>  <Energy>  (564) 
74.245894280648329

>  <compound_id>  (564) 
435

>  <target_id>  (564) 
1

>  <reference_id>  (564) 
179

>  <inspiration_ids>  (564) 
[179, 100]

>  <energy_score>  (564) 
-27.30015598179037

>  <distance_score>  (564) 
1.3943894150361251

>  <path>  (564) 
/opt/xchem-fragalysis-2/maxwin/BulkDock/SCRATCH/505736/C435-P179/C435-P179.minimised.mol

>  <scratch_subdir>  (564) 
/opt/xchem-fragalysis-2/maxwin/BulkDock/SCRATCH/505736/C435-P179

>  <fragmenstein_runtime>  (564) 
5.891985893249512

>  <fragmenstein_outcome>  (564) 
too moved

>  <fragmenstein_mode>  (564) 
expansion

>  <fragmenstein_error>  (564) 


$$$$
C435-P100
     RDKit          3D

 60 65  0  0  0  0  0  0  0  0999 V2000
  -16.6437    0.4635   13.2939 C   0  0  0  0  0  0  0  0  0  0  0  0
  -15.3479    0.6642   12.5705 C   0  0  0  0  0  0  0  0  0  0  0  0
  -15.0150   -0.1624   11.5050 C   0  0  0  0  0  0  0  0  0  0  0  0
  -13.7798    0.0077   10.8945 C   0  0  0  0  0  0  0  0  0  0  0  0
  -12.9225    0.9964   11.3566 C   0  0  0  0  0  0  0  0  0  0  0  0
  -13.3677    1.8406   12.3557 C   0  0  0  0  0  0  0  0  0  0  0  0
  -12.6995    3.0152   12.6185 N   0  0  0  0  0  0  0  0  0  0  0  0
  -11.2670    3.4821   12.2033 C   0  0  0  0  0  0  0  0  0  0  0  0
  -10.4149    2.9070   11.6429 O   0  0  0  0  0  0  0  0  0  0  0  0
  -11.1770    4.9748   12.5864 C   0  0  0  0  0  0  0  0  0  0  0  0
  -11.4728    5.8298   11.3577 C   0  0  0  0  0  0  0  0  0  0  0  0
  -10.8426    7.1718   11.6966 C   0  0  0  0  0  0  0  0  0  0  0  0
  -10.1706    6.9639   13.0490 C   0  0  0  0  0  0  0  0  0  0  0  0
   -9.9036    5.5189   13.1512 N   0  0  0  0  0  0  0  0  0  0  0  0
   -8.6908    5.1727   12.3836 C   0  0  0  0  0  0  0  0  0  0  0  0
   -7.7962    6.2899   12.0969 O   0  0  0  0  0  0  0  0  0  0  0  0
   -7.2002    6.1709   10.8635 C   0  0  0  0  0  0  0  0  0  0  0  0
   -5.8029    6.1654   10.7940 C   0  0  0  0  0  0  0  0  0  0  0  0
   -5.1339    5.7640    9.6217 C   0  0  0  0  0  0  0  0  0  0  0  0
   -5.9510    5.3193    8.5777 C   0  0  0  0  0  0  0  0  0  0  0  0
   -5.7179    4.6353    7.4049 N   0  0  0  0  0  0  0  0  0  0  0  0
   -6.9400    4.2045    6.9617 C   0  0  0  0  0  0  0  0  0  0  0  0
   -7.1457    2.8527    5.9169 S   0  0  0  0  0  0  0  0  0  0  0  0
   -7.9438    1.7634    7.0451 C   0  0  0  0  0  0  0  0  0  0  0  0
   -7.3383    0.5902    7.3387 C   0  0  0  0  0  0  0  0  0  0  0  0
   -8.0141   -0.3966    8.1657 C   0  0  0  0  0  0  0  0  0  0  0  0
   -9.2479   -0.1799    8.6538 C   0  0  0  0  0  0  0  0  0  0  0  0
   -9.9062    1.0400    8.3619 C   0  0  0  0  0  0  0  0  0  0  0  0
  -11.1102    1.4719    8.6610 N   0  0  0  0  0  0  0  0  0  0  0  0
  -11.2638    2.7106    8.0976 N   0  0  0  0  0  0  0  0  0  0  0  0
  -10.1693    2.9775    7.4171 C   0  0  0  0  0  0  0  0  0  0  0  0
   -9.2423    1.9762    7.5686 N   0  0  0  0  0  0  0  0  0  0  0  0
   -7.9171    4.8604    7.5222 N   0  0  0  0  0  0  0  0  0  0  0  0
   -7.3357    5.4404    8.6064 C   0  0  0  0  0  0  0  0  0  0  0  0
   -7.9716    5.9691    9.7214 C   0  0  0  0  0  0  0  0  0  0  0  0
  -14.5551    1.6812   12.9829 N   0  0  0  0  0  0  0  0  0  0  0  0
  -17.4841    0.6850   12.6290 H   0  0  0  0  0  0  0  0  0  0  0  0
  -16.7110    1.1259   14.1631 H   0  0  0  0  0  0  0  0  0  0  0  0
  -16.7292   -0.5688   13.6473 H   0  0  0  0  0  0  0  0  0  0  0  0
  -15.6910   -0.9391   11.1639 H   0  0  0  0  0  0  0  0  0  0  0  0
  -13.4875   -0.6080   10.0483 H   0  0  0  0  0  0  0  0  0  0  0  0
  -11.9705    1.1549   10.8685 H   0  0  0  0  0  0  0  0  0  0  0  0
  -13.1475    3.7407   13.1643 H   0  0  0  0  0  0  0  0  0  0  0  0
  -11.9429    5.2058   13.3317 H   0  0  0  0  0  0  0  0  0  0  0  0
  -11.0508    5.4116   10.4386 H   0  0  0  0  0  0  0  0  0  0  0  0
  -12.5522    5.9312   11.1978 H   0  0  0  0  0  0  0  0  0  0  0  0
  -10.1294    7.4827   10.9304 H   0  0  0  0  0  0  0  0  0  0  0  0
  -11.6041    7.9568   11.7620 H   0  0  0  0  0  0  0  0  0  0  0  0
  -10.8819    7.2463   13.8360 H   0  0  0  0  0  0  0  0  0  0  0  0
   -9.3067    7.6165   13.2115 H   0  0  0  0  0  0  0  0  0  0  0  0
   -8.1208    4.4904   13.0183 H   0  0  0  0  0  0  0  0  0  0  0  0
   -8.9398    4.6266   11.4753 H   0  0  0  0  0  0  0  0  0  0  0  0
   -5.2277    6.3957   11.6879 H   0  0  0  0  0  0  0  0  0  0  0  0
   -4.0523    5.6828    9.5903 H   0  0  0  0  0  0  0  0  0  0  0  0
   -4.8203    4.3301    7.0640 H   0  0  0  0  0  0  0  0  0  0  0  0
   -6.3671    0.3160    6.9388 H   0  0  0  0  0  0  0  0  0  0  0  0
   -7.5005   -1.3320    8.3658 H   0  0  0  0  0  0  0  0  0  0  0  0
   -9.7651   -0.9193    9.2570 H   0  0  0  0  0  0  0  0  0  0  0  0
  -10.0059    3.8600    6.8177 H   0  0  0  0  0  0  0  0  0  0  0  0
   -9.0490    6.0061    9.7247 H   0  0  0  0  0  0  0  0  0  0  0  0
  1  2  1  0
  2  3  2  0
  3  4  1  0
  4  5  2  0
  5  6  1  0
  6  7  1  0
  7  8  1  0
  8  9  2  0
  8 10  1  0
 10 11  1  0
 11 12  1  0
 12 13  1  0
 13 14  1  0
 14 15  1  0
 15 16  1  0
 16 17  1  0
 17 18  2  0
 18 19  1  0
 19 20  2  0
 20 21  1  0
 21 22  1  0
 22 23  1  0
 23 24  1  0
 24 25  2  0
 25 26  1  0
 26 27  2  0
 27 28  1  0
 28 29  2  0
 29 30  1  0
 30 31  2  0
 31 32  1  0
 22 33  2  0
 33 34  1  0
 34 35  2  0
  6 36  2  0
 36  2  1  0
 14 10  1  0
 35 17  1  0
 34 20  1  0
 32 24  1  0
 32 28  1  0
  1 37  1  0
  1 38  1  0
  1 39  1  0
  3 40  1  0
  4 41  1  0
  5 42  1  0
  7 43  1  0
 10 44  1  0
 11 45  1  0
 11 46  1  0
 12 47  1  0
 12 48  1  0
 13 49  1  0
 13 50  1  0
 15 51  1  0
 15 52  1  0
 18 53  1  0
 19 54  1  0
 21 55  1  0
 25 56  1  0
 26 57  1  0
 27 58  1  0
 31 59  1  0
 35 60  1  0
M  END
>  <Energy>  (565) 
69.481296240426687

>  <compound_id>  (565) 
435

>  <target_id>  (565) 
1

>  <reference_id>  (565) 
100

>  <inspiration_ids>  (565) 
[179, 100]

>  <energy_score>  (565) 
-32.06475402201255

>  <distance_score>  (565) 
1.4120761868181422

>  <path>  (565) 
/opt/xchem-fragalysis-2/maxwin/BulkDock/SCRATCH/505736/C435-P100/C435-P100.minimised.mol

>  <scratch_subdir>  (565) 
/opt/xchem-fragalysis-2/maxwin/BulkDock/SCRATCH/505736/C435-P100

>  <fragmenstein_runtime>  (565) 
7.26289439201355

>  <fragmenstein_outcome>  (565) 
too moved

>  <fragmenstein_mode>  (565) 
expansion

>  <fragmenstein_error>  (565) 


$$$$
C834-P179
     RDKit          3D

 56 61  0  0  0  0  0  0  0  0999 V2000
   -9.5740    1.1088   10.0429 C   0  0  0  0  0  0  0  0  0  0  0  0
   -8.9994    1.5264    8.7245 C   0  0  0  0  0  0  0  0  0  0  0  0
   -9.2587    2.9737    8.3852 C   0  0  0  0  0  0  0  0  0  0  0  0
   -7.5924    1.0704    8.4489 C   0  0  0  0  0  0  0  0  0  0  0  0
   -7.1877   -0.1785    8.3656 N   0  0  0  0  0  0  0  0  0  0  0  0
   -6.4644   -0.1227    7.2244 C   0  0  0  0  0  0  0  0  0  0  0  0
   -6.8665   -1.0010    6.0996 C   0  0  0  0  0  0  0  0  0  0  0  0
   -6.3242   -2.4179    6.1708 C   0  0  0  0  0  0  0  0  0  0  0  0
   -7.1836   -3.2075    5.1913 C   0  0  0  0  0  0  0  0  0  0  0  0
   -8.2896   -2.2498    4.7359 C   0  0  0  0  0  0  0  0  0  0  0  0
   -8.4271   -1.2083    5.8816 C   0  0  0  0  0  0  0  0  0  0  0  0
   -9.1944   -1.9466    7.0561 C   0  0  0  0  0  0  0  0  0  0  0  0
  -10.7036   -2.0629    6.7614 C   0  0  0  0  0  0  0  0  0  0  0  0
  -11.2490   -0.7020    6.6904 C   0  0  0  0  0  0  0  0  0  0  0  0
  -12.2772   -0.2023    7.4519 N   0  0  0  0  0  0  0  0  0  0  0  0
  -12.2341    1.0949    7.2571 C   0  0  0  0  0  0  0  0  0  0  0  0
  -13.1448    2.3465    8.0570 S   0  0  0  0  0  0  0  0  0  0  0  0
  -13.1533    1.8415    9.7317 C   0  0  0  0  0  0  0  0  0  0  0  0
  -13.8927    0.7913   10.1472 C   0  0  0  0  0  0  0  0  0  0  0  0
  -13.9893    0.4888   11.5692 C   0  0  0  0  0  0  0  0  0  0  0  0
  -13.2830    1.1662   12.4931 C   0  0  0  0  0  0  0  0  0  0  0  0
  -12.4527    2.2366   12.0760 C   0  0  0  0  0  0  0  0  0  0  0  0
  -11.6151    3.0163   12.7255 N   0  0  0  0  0  0  0  0  0  0  0  0
  -11.1486    3.9593   11.8444 N   0  0  0  0  0  0  0  0  0  0  0  0
  -11.7171    3.7287   10.6824 C   0  0  0  0  0  0  0  0  0  0  0  0
  -12.4746    2.5853   10.7271 N   0  0  0  0  0  0  0  0  0  0  0  0
  -11.3087    1.4178    6.2744 N   0  0  0  0  0  0  0  0  0  0  0  0
  -10.5693    0.2802    6.0150 C   0  0  0  0  0  0  0  0  0  0  0  0
   -9.1997    0.1133    5.3822 C   0  0  0  0  0  0  0  0  0  0  0  0
   -5.9191    1.0821    6.9881 N   0  0  0  0  0  0  0  0  0  0  0  0
   -6.7656    1.9201    7.7485 O   0  0  0  0  0  0  0  0  0  0  0  0
  -10.6380    0.8985    9.9555 H   0  0  0  0  0  0  0  0  0  0  0  0
   -9.1128    0.1689   10.3504 H   0  0  0  0  0  0  0  0  0  0  0  0
   -9.4318    1.8768   10.8002 H   0  0  0  0  0  0  0  0  0  0  0  0
   -9.5586    0.9414    8.0174 H   0  0  0  0  0  0  0  0  0  0  0  0
   -8.7745    3.6600    9.0844 H   0  0  0  0  0  0  0  0  0  0  0  0
   -8.8948    3.2241    7.3819 H   0  0  0  0  0  0  0  0  0  0  0  0
  -10.3221    3.2002    8.3867 H   0  0  0  0  0  0  0  0  0  0  0  0
   -6.4696   -0.5431    5.1785 H   0  0  0  0  0  0  0  0  0  0  0  0
   -5.2632   -2.4608    5.9005 H   0  0  0  0  0  0  0  0  0  0  0  0
   -6.4130   -2.8392    7.1749 H   0  0  0  0  0  0  0  0  0  0  0  0
   -7.5982   -4.0853    5.6948 H   0  0  0  0  0  0  0  0  0  0  0  0
   -6.6002   -3.5629    4.3356 H   0  0  0  0  0  0  0  0  0  0  0  0
   -7.9725   -1.7551    3.8079 H   0  0  0  0  0  0  0  0  0  0  0  0
   -9.2101   -2.7891    4.4991 H   0  0  0  0  0  0  0  0  0  0  0  0
   -8.8047   -2.9542    7.2323 H   0  0  0  0  0  0  0  0  0  0  0  0
   -9.0813   -1.4189    8.0045 H   0  0  0  0  0  0  0  0  0  0  0  0
  -10.8842   -2.5836    5.8155 H   0  0  0  0  0  0  0  0  0  0  0  0
  -11.2408   -2.6304    7.5034 H   0  0  0  0  0  0  0  0  0  0  0  0
  -14.4558    0.1657    9.4582 H   0  0  0  0  0  0  0  0  0  0  0  0
  -14.6728   -0.3035   11.8542 H   0  0  0  0  0  0  0  0  0  0  0  0
  -13.3476    0.9382   13.5514 H   0  0  0  0  0  0  0  0  0  0  0  0
  -11.6038    4.3366    9.7990 H   0  0  0  0  0  0  0  0  0  0  0  0
  -11.0871    2.3598    5.9888 H   0  0  0  0  0  0  0  0  0  0  0  0
   -8.6023    1.0014    5.6123 H   0  0  0  0  0  0  0  0  0  0  0  0
   -9.3235    0.0864    4.2934 H   0  0  0  0  0  0  0  0  0  0  0  0
  1  2  1  0
  2  3  1  0
  2  4  1  0
  4  5  2  0
  5  6  1  0
  6  7  1  0
  7  8  1  0
  8  9  1  0
  9 10  1  0
 10 11  1  0
 11 12  1  0
 12 13  1  0
 13 14  1  0
 14 15  1  0
 15 16  2  0
 16 17  1  0
 17 18  1  0
 18 19  2  0
 19 20  1  0
 20 21  2  0
 21 22  1  0
 22 23  2  0
 23 24  1  0
 24 25  2  0
 25 26  1  0
 16 27  1  0
 27 28  1  0
 28 29  1  0
  6 30  2  0
 30 31  1  0
 31  4  1  0
 11  7  1  0
 28 14  2  0
 29 11  1  0
 26 18  1  0
 26 22  1  0
  1 32  1  0
  1 33  1  0
  1 34  1  0
  2 35  1  0
  3 36  1  0
  3 37  1  0
  3 38  1  0
  7 39  1  0
  8 40  1  0
  8 41  1  0
  9 42  1  0
  9 43  1  0
 10 44  1  0
 10 45  1  0
 12 46  1  0
 12 47  1  0
 13 48  1  0
 13 49  1  0
 19 50  1  0
 20 51  1  0
 21 52  1  0
 25 53  1  0
 27 54  1  0
 29 55  1  0
 29 56  1  0
M  END
>  <Energy>  (566) 
112.27917123137453

>  <compound_id>  (566) 
834

>  <target_id>  (566) 
1

>  <reference_id>  (566) 
179

>  <inspiration_ids>  (566) 
[179, 139]

>  <energy_score>  (566) 
-16.35688809487266

>  <distance_score>  (566) 
2.1385777301638407

>  <path>  (566) 
/opt/xchem-fragalysis-2/maxwin/BulkDock/SCRATCH/505736/C834-P179/C834-P179.minimised.mol

>  <scratch_subdir>  (566) 
/opt/xchem-fragalysis-2/maxwin/BulkDock/SCRATCH/505736/C834-P179

>  <fragmenstein_runtime>  (566) 
24.316283226013184

>  <fragmenstein_outcome>  (566) 
too moved

>  <fragmenstein_mode>  (566) 
expansion

>  <fragmenstein_error>  (566) 


$$$$
C834-P139
     RDKit          3D

 56 61  0  0  0  0  0  0  0  0999 V2000
   -9.7244    0.9793   10.0927 C   0  0  0  0  0  0  0  0  0  0  0  0
   -9.1746    1.4134    8.7623 C   0  0  0  0  0  0  0  0  0  0  0  0
   -9.4304    2.8666    8.4377 C   0  0  0  0  0  0  0  0  0  0  0  0
   -7.7733    0.9712    8.4407 C   0  0  0  0  0  0  0  0  0  0  0  0
   -7.3278   -0.2640    8.3803 N   0  0  0  0  0  0  0  0  0  0  0  0
   -6.5835   -0.1964    7.2532 C   0  0  0  0  0  0  0  0  0  0  0  0
   -6.9586   -1.0825    6.1293 C   0  0  0  0  0  0  0  0  0  0  0  0
   -6.4244   -2.4987    6.2344 C   0  0  0  0  0  0  0  0  0  0  0  0
   -7.2635   -3.2898    5.2403 C   0  0  0  0  0  0  0  0  0  0  0  0
   -8.3536   -2.3316    4.7456 C   0  0  0  0  0  0  0  0  0  0  0  0
   -8.5166   -1.2838    5.8807 C   0  0  0  0  0  0  0  0  0  0  0  0
   -9.3160   -2.0167    7.0392 C   0  0  0  0  0  0  0  0  0  0  0  0
  -10.8220   -2.1199    6.7164 C   0  0  0  0  0  0  0  0  0  0  0  0
  -11.3533   -0.7530    6.6370 C   0  0  0  0  0  0  0  0  0  0  0  0
  -12.3925   -0.2443    7.3795 N   0  0  0  0  0  0  0  0  0  0  0  0
  -12.3208    1.0549    7.2011 C   0  0  0  0  0  0  0  0  0  0  0  0
  -13.2152    2.3171    8.0061 S   0  0  0  0  0  0  0  0  0  0  0  0
  -13.2343    1.8111    9.6812 C   0  0  0  0  0  0  0  0  0  0  0  0
  -13.9654    0.7499   10.0832 C   0  0  0  0  0  0  0  0  0  0  0  0
  -14.0848    0.4441   11.5018 C   0  0  0  0  0  0  0  0  0  0  0  0
  -13.4113    1.1341   12.4400 C   0  0  0  0  0  0  0  0  0  0  0  0
  -12.5965    2.2225   12.0416 C   0  0  0  0  0  0  0  0  0  0  0  0
  -11.8043    3.0268   12.7163 N   0  0  0  0  0  0  0  0  0  0  0  0
  -11.3236    3.9703   11.8437 N   0  0  0  0  0  0  0  0  0  0  0  0
  -11.8507    3.7245   10.6654 C   0  0  0  0  0  0  0  0  0  0  0  0
  -12.5877    2.5670   10.6907 N   0  0  0  0  0  0  0  0  0  0  0  0
  -11.3751    1.3706    6.2342 N   0  0  0  0  0  0  0  0  0  0  0  0
  -10.6487    0.2235    5.9786 C   0  0  0  0  0  0  0  0  0  0  0  0
   -9.2730    0.0400    5.3627 C   0  0  0  0  0  0  0  0  0  0  0  0
   -6.0742    1.0216    7.0092 N   0  0  0  0  0  0  0  0  0  0  0  0
   -6.9706    1.8385    7.7322 O   0  0  0  0  0  0  0  0  0  0  0  0
  -10.7761    0.7054   10.0072 H   0  0  0  0  0  0  0  0  0  0  0  0
   -9.2099    0.0739   10.4216 H   0  0  0  0  0  0  0  0  0  0  0  0
   -9.6401    1.7611   10.8460 H   0  0  0  0  0  0  0  0  0  0  0  0
   -9.7504    0.8327    8.0653 H   0  0  0  0  0  0  0  0  0  0  0  0
  -10.4901    3.0979    8.4532 H   0  0  0  0  0  0  0  0  0  0  0  0
   -8.9358    3.5478    9.1344 H   0  0  0  0  0  0  0  0  0  0  0  0
   -9.0807    3.1251    7.4313 H   0  0  0  0  0  0  0  0  0  0  0  0
   -6.5374   -0.6372    5.2128 H   0  0  0  0  0  0  0  0  0  0  0  0
   -5.3571   -2.5502    5.9920 H   0  0  0  0  0  0  0  0  0  0  0  0
   -6.5417   -2.9083    7.2421 H   0  0  0  0  0  0  0  0  0  0  0  0
   -7.6982   -4.1543    5.7483 H   0  0  0  0  0  0  0  0  0  0  0  0
   -6.6614   -3.6611    4.4047 H   0  0  0  0  0  0  0  0  0  0  0  0
   -8.0106   -1.8449    3.8227 H   0  0  0  0  0  0  0  0  0  0  0  0
   -9.2699   -2.8697    4.4899 H   0  0  0  0  0  0  0  0  0  0  0  0
   -8.9400   -3.0281    7.2220 H   0  0  0  0  0  0  0  0  0  0  0  0
   -9.2169   -1.4931    7.9911 H   0  0  0  0  0  0  0  0  0  0  0  0
  -10.9860   -2.6357    5.7648 H   0  0  0  0  0  0  0  0  0  0  0  0
  -11.3836   -2.6848    7.4462 H   0  0  0  0  0  0  0  0  0  0  0  0
  -14.5085    0.1184    9.3840 H   0  0  0  0  0  0  0  0  0  0  0  0
  -14.7591   -0.3617   11.7701 H   0  0  0  0  0  0  0  0  0  0  0  0
  -13.4910    0.9029   13.4960 H   0  0  0  0  0  0  0  0  0  0  0  0
  -11.7233    4.3344    9.7851 H   0  0  0  0  0  0  0  0  0  0  0  0
  -11.1317    2.3114    5.9618 H   0  0  0  0  0  0  0  0  0  0  0  0
   -8.6723    0.9263    5.5894 H   0  0  0  0  0  0  0  0  0  0  0  0
   -9.3863    0.0027    4.2730 H   0  0  0  0  0  0  0  0  0  0  0  0
  1  2  1  0
  2  3  1  0
  2  4  1  0
  4  5  2  0
  5  6  1  0
  6  7  1  0
  7  8  1  0
  8  9  1  0
  9 10  1  0
 10 11  1  0
 11 12  1  0
 12 13  1  0
 13 14  1  0
 14 15  1  0
 15 16  2  0
 16 17  1  0
 17 18  1  0
 18 19  2  0
 19 20  1  0
 20 21  2  0
 21 22  1  0
 22 23  2  0
 23 24  1  0
 24 25  2  0
 25 26  1  0
 16 27  1  0
 27 28  1  0
 28 29  1  0
  6 30  2  0
 30 31  1  0
 31  4  1  0
 11  7  1  0
 28 14  2  0
 29 11  1  0
 26 18  1  0
 26 22  1  0
  1 32  1  0
  1 33  1  0
  1 34  1  0
  2 35  1  0
  3 36  1  0
  3 37  1  0
  3 38  1  0
  7 39  1  0
  8 40  1  0
  8 41  1  0
  9 42  1  0
  9 43  1  0
 10 44  1  0
 10 45  1  0
 12 46  1  0
 12 47  1  0
 13 48  1  0
 13 49  1  0
 19 50  1  0
 20 51  1  0
 21 52  1  0
 25 53  1  0
 27 54  1  0
 29 55  1  0
 29 56  1  0
M  END
>  <Energy>  (567) 
113.31238698472563

>  <compound_id>  (567) 
834

>  <target_id>  (567) 
1

>  <reference_id>  (567) 
139

>  <inspiration_ids>  (567) 
[179, 139]

>  <energy_score>  (567) 
-15.323672341523093

>  <distance_score>  (567) 
2.1496445973536478

>  <path>  (567) 
/opt/xchem-fragalysis-2/maxwin/BulkDock/SCRATCH/505736/C834-P139/C834-P139.minimised.mol

>  <scratch_subdir>  (567) 
/opt/xchem-fragalysis-2/maxwin/BulkDock/SCRATCH/505736/C834-P139

>  <fragmenstein_runtime>  (567) 
25.987255811691284

>  <fragmenstein_outcome>  (567) 
too moved

>  <fragmenstein_mode>  (567) 
expansion

>  <fragmenstein_error>  (567) 


$$$$
C902-P179
     RDKit          3D

 30 33  0  0  0  0  0  0  0  0999 V2000
  -10.7361    3.3094    9.0221 N   0  0  0  0  0  0  0  0  0  0  0  0
  -11.2039    3.2618   10.2838 C   0  0  0  0  0  0  0  0  0  0  0  0
  -10.8712    4.0904   11.2464 N   0  0  0  0  0  0  0  0  0  0  0  0
  -11.4787    3.6760   12.3972 N   0  0  0  0  0  0  0  0  0  0  0  0
  -12.1929    2.6109   12.1146 C   0  0  0  0  0  0  0  0  0  0  0  0
  -13.0306    1.8063   12.9275 C   0  0  0  0  0  0  0  0  0  0  0  0
  -13.7224    0.7990   12.3710 C   0  0  0  0  0  0  0  0  0  0  0  0
  -13.6309    0.5131   10.9495 C   0  0  0  0  0  0  0  0  0  0  0  0
  -12.8215    1.2518   10.1563 C   0  0  0  0  0  0  0  0  0  0  0  0
  -12.9349    1.0201    8.4363 S   0  0  0  0  0  0  0  0  0  0  0  0
  -11.4144    0.2966    8.0880 C   0  0  0  0  0  0  0  0  0  0  0  0
  -10.2103    0.8292    8.1823 N   0  0  0  0  0  0  0  0  0  0  0  0
   -9.3526   -0.1072    7.6883 C   0  0  0  0  0  0  0  0  0  0  0  0
   -7.9556   -0.0687    7.6005 C   0  0  0  0  0  0  0  0  0  0  0  0
   -7.3173   -1.2110    7.1366 C   0  0  0  0  0  0  0  0  0  0  0  0
   -8.0690   -2.3242    6.7658 C   0  0  0  0  0  0  0  0  0  0  0  0
   -7.4277   -3.4367    6.4071 F   0  0  0  0  0  0  0  0  0  0  0  0
   -9.4600   -2.3562    6.7757 C   0  0  0  0  0  0  0  0  0  0  0  0
  -10.0705   -1.2164    7.2569 C   0  0  0  0  0  0  0  0  0  0  0  0
  -11.3863   -0.9160    7.4804 N   0  0  0  0  0  0  0  0  0  0  0  0
  -12.0881    2.3024   10.7565 N   0  0  0  0  0  0  0  0  0  0  0  0
   -9.9342    3.9269    8.9284 H   0  0  0  0  0  0  0  0  0  0  0  0
  -10.4944    2.4074    8.6007 H   0  0  0  0  0  0  0  0  0  0  0  0
  -13.0993    2.0430   13.9837 H   0  0  0  0  0  0  0  0  0  0  0  0
  -14.3959    0.2014   12.9740 H   0  0  0  0  0  0  0  0  0  0  0  0
  -14.2792   -0.2652   10.5552 H   0  0  0  0  0  0  0  0  0  0  0  0
   -7.4032    0.8017    7.9346 H   0  0  0  0  0  0  0  0  0  0  0  0
   -6.2337   -1.2592    7.0950 H   0  0  0  0  0  0  0  0  0  0  0  0
  -10.0090   -3.2396    6.4786 H   0  0  0  0  0  0  0  0  0  0  0  0
  -12.1822   -1.5112    7.3031 H   0  0  0  0  0  0  0  0  0  0  0  0
  1  2  1  0
  2  3  2  0
  3  4  1  0
  4  5  2  0
  5  6  1  0
  6  7  2  0
  7  8  1  0
  8  9  2  0
  9 10  1  0
 10 11  1  0
 11 12  2  0
 12 13  1  0
 13 14  2  0
 14 15  1  0
 15 16  2  0
 16 17  1  0
 16 18  1  0
 18 19  2  0
 19 20  1  0
  9 21  1  0
 21  2  1  0
 21  5  1  0
 20 11  1  0
 19 13  1  0
  1 22  1  0
  1 23  1  0
  6 24  1  0
  7 25  1  0
  8 26  1  0
 14 27  1  0
 15 28  1  0
 18 29  1  0
 20 30  1  0
M  END
>  <Energy>  (568) 
32.655071616782699

>  <compound_id>  (568) 
902

>  <target_id>  (568) 
1

>  <reference_id>  (568) 
179

>  <inspiration_ids>  (568) 
[179, 143]

>  <energy_score>  (568) 
-63.98759303700666

>  <distance_score>  (568) 
2.3776987443635296

>  <path>  (568) 
/opt/xchem-fragalysis-2/maxwin/BulkDock/SCRATCH/505736/C902-P179/C902-P179.minimised.mol

>  <scratch_subdir>  (568) 
/opt/xchem-fragalysis-2/maxwin/BulkDock/SCRATCH/505736/C902-P179

>  <fragmenstein_runtime>  (568) 
2.725167751312256

>  <fragmenstein_outcome>  (568) 
too moved

>  <fragmenstein_mode>  (568) 
expansion

>  <fragmenstein_error>  (568) 


$$$$
C902-P143
     RDKit          3D

 30 33  0  0  0  0  0  0  0  0999 V2000
  -10.7494    3.2843    9.0099 N   0  0  0  0  0  0  0  0  0  0  0  0
  -11.1974    3.2628   10.2798 C   0  0  0  0  0  0  0  0  0  0  0  0
  -10.8529    4.1124   11.2201 N   0  0  0  0  0  0  0  0  0  0  0  0
  -11.4388    3.7185   12.3895 N   0  0  0  0  0  0  0  0  0  0  0  0
  -12.1534    2.6456   12.1391 C   0  0  0  0  0  0  0  0  0  0  0  0
  -12.9777    1.8587   12.9820 C   0  0  0  0  0  0  0  0  0  0  0  0
  -13.6759    0.8390   12.4566 C   0  0  0  0  0  0  0  0  0  0  0  0
  -13.6045    0.5215   11.0402 C   0  0  0  0  0  0  0  0  0  0  0  0
  -12.8099    1.2450   10.2183 C   0  0  0  0  0  0  0  0  0  0  0  0
  -12.9554    0.9780    8.5054 S   0  0  0  0  0  0  0  0  0  0  0  0
  -11.4398    0.2534    8.1363 C   0  0  0  0  0  0  0  0  0  0  0  0
  -10.2317    0.7728    8.2579 N   0  0  0  0  0  0  0  0  0  0  0  0
   -9.3799   -0.1466    7.7243 C   0  0  0  0  0  0  0  0  0  0  0  0
   -7.9826   -0.1121    7.6377 C   0  0  0  0  0  0  0  0  0  0  0  0
   -7.3500   -1.2387    7.1303 C   0  0  0  0  0  0  0  0  0  0  0  0
   -8.1081   -2.3324    6.7164 C   0  0  0  0  0  0  0  0  0  0  0  0
   -7.4718   -3.4351    6.3192 F   0  0  0  0  0  0  0  0  0  0  0  0
   -9.4995   -2.3554    6.7209 C   0  0  0  0  0  0  0  0  0  0  0  0
  -10.1036   -1.2320    7.2463 C   0  0  0  0  0  0  0  0  0  0  0  0
  -11.4194   -0.9334    7.4768 N   0  0  0  0  0  0  0  0  0  0  0  0
  -12.0701    2.3097   10.7855 N   0  0  0  0  0  0  0  0  0  0  0  0
   -9.9460    3.8950    8.8914 H   0  0  0  0  0  0  0  0  0  0  0  0
  -10.5189    2.3713    8.6059 H   0  0  0  0  0  0  0  0  0  0  0  0
  -13.0313    2.1212   14.0335 H   0  0  0  0  0  0  0  0  0  0  0  0
  -14.3404    0.2540   13.0811 H   0  0  0  0  0  0  0  0  0  0  0  0
  -14.2561   -0.2667   10.6717 H   0  0  0  0  0  0  0  0  0  0  0  0
   -7.4276    0.7418    8.0066 H   0  0  0  0  0  0  0  0  0  0  0  0
   -6.2667   -1.2914    7.0887 H   0  0  0  0  0  0  0  0  0  0  0  0
  -10.0588   -3.2195    6.3888 H   0  0  0  0  0  0  0  0  0  0  0  0
  -12.2180   -1.5172    7.2672 H   0  0  0  0  0  0  0  0  0  0  0  0
  1  2  1  0
  2  3  2  0
  3  4  1  0
  4  5  2  0
  5  6  1  0
  6  7  2  0
  7  8  1  0
  8  9  2  0
  9 10  1  0
 10 11  1  0
 11 12  2  0
 12 13  1  0
 13 14  2  0
 14 15  1  0
 15 16  2  0
 16 17  1  0
 16 18  1  0
 18 19  2  0
 19 20  1  0
  9 21  1  0
 21  2  1  0
 21  5  1  0
 20 11  1  0
 19 13  1  0
  1 22  1  0
  1 23  1  0
  6 24  1  0
  7 25  1  0
  8 26  1  0
 14 27  1  0
 15 28  1  0
 18 29  1  0
 20 30  1  0
M  END
>  <Energy>  (569) 
32.655677612916584

>  <compound_id>  (569) 
902

>  <target_id>  (569) 
1

>  <reference_id>  (569) 
143

>  <inspiration_ids>  (569) 
[179, 143]

>  <energy_score>  (569) 
-63.98698704087434

>  <distance_score>  (569) 
2.3840583550309127

>  <path>  (569) 
/opt/xchem-fragalysis-2/maxwin/BulkDock/SCRATCH/505736/C902-P143/C902-P143.minimised.mol

>  <scratch_subdir>  (569) 
/opt/xchem-fragalysis-2/maxwin/BulkDock/SCRATCH/505736/C902-P143

>  <fragmenstein_runtime>  (569) 
1.408318281173706

>  <fragmenstein_outcome>  (569) 
too moved

>  <fragmenstein_mode>  (569) 
expansion

>  <fragmenstein_error>  (569) 


$$$$
C2684-P179
     RDKit          3D

 38 42  0  0  0  0  0  0  0  0999 V2000
   -4.6122   -2.5234    6.2408 C   0  0  0  0  0  0  0  0  0  0  0  0
   -5.7430   -1.5878    5.8694 C   0  0  0  0  0  0  0  0  0  0  0  0
   -5.4707   -1.0362    4.4677 C   0  0  0  0  0  0  0  0  0  0  0  0
   -5.6170   -0.4934    6.8020 O   0  0  0  0  0  0  0  0  0  0  0  0
   -6.4037   -0.4725    7.8973 C   0  0  0  0  0  0  0  0  0  0  0  0
   -6.0781    0.0637    8.9320 O   0  0  0  0  0  0  0  0  0  0  0  0
   -7.6765   -1.0544    7.7052 C   0  0  0  0  0  0  0  0  0  0  0  0
   -7.9030   -1.9638    6.6686 C   0  0  0  0  0  0  0  0  0  0  0  0
   -9.2354   -2.2314    6.6919 C   0  0  0  0  0  0  0  0  0  0  0  0
  -10.2462   -2.8581    6.0852 N   0  0  0  0  0  0  0  0  0  0  0  0
  -11.4862   -2.4411    6.6056 N   0  0  0  0  0  0  0  0  0  0  0  0
  -11.1973   -1.6001    7.5701 C   0  0  0  0  0  0  0  0  0  0  0  0
  -12.4936   -0.6446    8.5452 Br  0  0  0  0  0  0  0  0  0  0  0  0
   -9.8249   -1.4871    7.6651 N   0  0  0  0  0  0  0  0  0  0  0  0
   -8.8850   -0.7624    8.3221 C   0  0  0  0  0  0  0  0  0  0  0  0
   -9.4089    0.3976    9.5129 S   0  0  0  0  0  0  0  0  0  0  0  0
   -9.5863    1.7816    8.4727 C   0  0  0  0  0  0  0  0  0  0  0  0
   -9.0459    2.9510    8.7231 N   0  0  0  0  0  0  0  0  0  0  0  0
   -8.1707    3.0735    7.6795 C   0  0  0  0  0  0  0  0  0  0  0  0
   -6.9989    3.8281    7.5742 C   0  0  0  0  0  0  0  0  0  0  0  0
   -6.0821    3.4380    6.5952 C   0  0  0  0  0  0  0  0  0  0  0  0
   -6.4010    2.4222    5.6908 C   0  0  0  0  0  0  0  0  0  0  0  0
   -5.4417    1.9091    4.9135 F   0  0  0  0  0  0  0  0  0  0  0  0
   -7.6681    1.8546    5.6086 C   0  0  0  0  0  0  0  0  0  0  0  0
   -8.4969    2.1675    6.6726 C   0  0  0  0  0  0  0  0  0  0  0  0
   -9.6859    1.6304    7.1119 N   0  0  0  0  0  0  0  0  0  0  0  0
   -6.9801   -2.3500    5.7730 O   0  0  0  0  0  0  0  0  0  0  0  0
   -4.9072   -3.1616    7.0759 H   0  0  0  0  0  0  0  0  0  0  0  0
   -3.7275   -1.9643    6.5565 H   0  0  0  0  0  0  0  0  0  0  0  0
   -4.3588   -3.1952    5.4158 H   0  0  0  0  0  0  0  0  0  0  0  0
   -4.5444   -0.4530    4.4358 H   0  0  0  0  0  0  0  0  0  0  0  0
   -5.4130   -1.8409    3.7261 H   0  0  0  0  0  0  0  0  0  0  0  0
   -6.2860   -0.3824    4.1463 H   0  0  0  0  0  0  0  0  0  0  0  0
  -10.1868   -3.5390    5.3245 H   0  0  0  0  0  0  0  0  0  0  0  0
   -6.7350    4.5496    8.3394 H   0  0  0  0  0  0  0  0  0  0  0  0
   -5.0951    3.8855    6.6029 H   0  0  0  0  0  0  0  0  0  0  0  0
   -7.9060    1.0898    4.8824 H   0  0  0  0  0  0  0  0  0  0  0  0
  -10.1489    0.8704    6.6454 H   0  0  0  0  0  0  0  0  0  0  0  0
  1  2  1  0
  2  3  1  0
  2  4  1  0
  4  5  1  0
  5  6  2  0
  5  7  1  0
  7  8  1  0
  8  9  2  0
  9 10  1  0
 10 11  1  0
 11 12  2  0
 12 13  1  0
 12 14  1  0
 14 15  1  0
 15 16  1  0
 16 17  1  0
 17 18  2  0
 18 19  1  0
 19 20  2  0
 20 21  1  0
 21 22  2  0
 22 23  1  0
 22 24  1  0
 24 25  2  0
 25 26  1  0
  8 27  1  0
 27  2  1  0
 15  7  2  0
 26 17  1  0
 14  9  1  0
 25 19  1  0
  1 28  1  0
  1 29  1  0
  1 30  1  0
  3 31  1  0
  3 32  1  0
  3 33  1  0
 10 34  1  0
 20 35  1  0
 21 36  1  0
 24 37  1  0
 26 38  1  0
M  END
>  <Energy>  (570) 
105.7455033166172

>  <compound_id>  (570) 
2684

>  <target_id>  (570) 
1

>  <reference_id>  (570) 
179

>  <inspiration_ids>  (570) 
[179, 169]

>  <energy_score>  (570) 
-17.67565828593007

>  <distance_score>  (570) 
2.41465448420957

>  <path>  (570) 
/opt/xchem-fragalysis-2/maxwin/BulkDock/SCRATCH/505736/C2684-P179/C2684-P179.minimised.mol

>  <scratch_subdir>  (570) 
/opt/xchem-fragalysis-2/maxwin/BulkDock/SCRATCH/505736/C2684-P179

>  <fragmenstein_runtime>  (570) 
2.3954555988311768

>  <fragmenstein_outcome>  (570) 
too moved

>  <fragmenstein_mode>  (570) 
expansion

>  <fragmenstein_error>  (570) 


$$$$
C2684-P169
     RDKit          3D

 38 42  0  0  0  0  0  0  0  0999 V2000
   -3.9501   -1.8566    7.2817 C   0  0  0  0  0  0  0  0  0  0  0  0
   -4.9717   -0.7448    7.3902 C   0  0  0  0  0  0  0  0  0  0  0  0
   -4.1958    0.5412    7.5932 C   0  0  0  0  0  0  0  0  0  0  0  0
   -5.6021   -0.7031    6.0948 O   0  0  0  0  0  0  0  0  0  0  0  0
   -6.7910   -1.3394    5.8959 C   0  0  0  0  0  0  0  0  0  0  0  0
   -7.2045   -1.5912    4.7796 O   0  0  0  0  0  0  0  0  0  0  0  0
   -7.6191   -1.4310    7.0457 C   0  0  0  0  0  0  0  0  0  0  0  0
   -7.0800   -1.0484    8.2658 C   0  0  0  0  0  0  0  0  0  0  0  0
   -8.1324   -0.5892    8.9673 C   0  0  0  0  0  0  0  0  0  0  0  0
   -8.4519    0.2146    9.9755 N   0  0  0  0  0  0  0  0  0  0  0  0
   -9.8313    0.3733   10.0563 N   0  0  0  0  0  0  0  0  0  0  0  0
  -10.3379   -0.3944    9.1297 C   0  0  0  0  0  0  0  0  0  0  0  0
  -12.1891   -0.5079    8.9215 Br  0  0  0  0  0  0  0  0  0  0  0  0
   -9.3028   -0.9662    8.4055 N   0  0  0  0  0  0  0  0  0  0  0  0
   -9.0207   -1.4574    7.1560 C   0  0  0  0  0  0  0  0  0  0  0  0
  -10.3047   -1.3308    5.9572 S   0  0  0  0  0  0  0  0  0  0  0  0
  -10.0591    0.4054    5.8380 C   0  0  0  0  0  0  0  0  0  0  0  0
  -10.1832    1.2963    6.8024 N   0  0  0  0  0  0  0  0  0  0  0  0
   -9.0276    2.0389    6.7220 C   0  0  0  0  0  0  0  0  0  0  0  0
   -8.4671    2.9491    7.6272 C   0  0  0  0  0  0  0  0  0  0  0  0
   -7.1310    3.3225    7.4277 C   0  0  0  0  0  0  0  0  0  0  0  0
   -6.4172    2.8330    6.3336 C   0  0  0  0  0  0  0  0  0  0  0  0
   -5.0972    3.0282    6.2605 F   0  0  0  0  0  0  0  0  0  0  0  0
   -6.9991    2.0674    5.3375 C   0  0  0  0  0  0  0  0  0  0  0  0
   -8.3002    1.6686    5.5961 C   0  0  0  0  0  0  0  0  0  0  0  0
   -9.1069    0.7759    4.9373 N   0  0  0  0  0  0  0  0  0  0  0  0
   -5.7905   -0.8433    8.5542 O   0  0  0  0  0  0  0  0  0  0  0  0
   -3.3386   -1.9420    8.1834 H   0  0  0  0  0  0  0  0  0  0  0  0
   -3.2898   -1.6639    6.4337 H   0  0  0  0  0  0  0  0  0  0  0  0
   -4.4338   -2.8234    7.1064 H   0  0  0  0  0  0  0  0  0  0  0  0
   -3.4903    0.4688    8.4268 H   0  0  0  0  0  0  0  0  0  0  0  0
   -3.6649    0.7977    6.6879 H   0  0  0  0  0  0  0  0  0  0  0  0
   -4.8715    1.3575    7.8325 H   0  0  0  0  0  0  0  0  0  0  0  0
   -7.8453    0.9553   10.3313 H   0  0  0  0  0  0  0  0  0  0  0  0
   -9.0119    3.2482    8.5167 H   0  0  0  0  0  0  0  0  0  0  0  0
   -6.6273    3.9457    8.1606 H   0  0  0  0  0  0  0  0  0  0  0  0
   -6.4252    1.6986    4.4959 H   0  0  0  0  0  0  0  0  0  0  0  0
   -8.7887    0.1751    4.1902 H   0  0  0  0  0  0  0  0  0  0  0  0
  1  2  1  0
  2  3  1  0
  2  4  1  0
  4  5  1  0
  5  6  2  0
  5  7  1  0
  7  8  1  0
  8  9  2  0
  9 10  1  0
 10 11  1  0
 11 12  2  0
 12 13  1  0
 12 14  1  0
 14 15  1  0
 15 16  1  0
 16 17  1  0
 17 18  2  0
 18 19  1  0
 19 20  2  0
 20 21  1  0
 21 22  2  0
 22 23  1  0
 22 24  1  0
 24 25  2  0
 25 26  1  0
  8 27  1  0
 27  2  1  0
 15  7  2  0
 26 17  1  0
 14  9  1  0
 25 19  1  0
  1 28  1  0
  1 29  1  0
  1 30  1  0
  3 31  1  0
  3 32  1  0
  3 33  1  0
 10 34  1  0
 20 35  1  0
 21 36  1  0
 24 37  1  0
 26 38  1  0
M  END
>  <Energy>  (571) 
96.452836033373202

>  <compound_id>  (571) 
2684

>  <target_id>  (571) 
1

>  <reference_id>  (571) 
169

>  <inspiration_ids>  (571) 
[179, 169]

>  <energy_score>  (571) 
-26.968325569170702

>  <distance_score>  (571) 
2.6519801708825272

>  <path>  (571) 
/opt/xchem-fragalysis-2/maxwin/BulkDock/SCRATCH/505736/C2684-P169/C2684-P169.minimised.mol

>  <scratch_subdir>  (571) 
/opt/xchem-fragalysis-2/maxwin/BulkDock/SCRATCH/505736/C2684-P169

>  <fragmenstein_runtime>  (571) 
2.2784523963928223

>  <fragmenstein_outcome>  (571) 
too moved

>  <fragmenstein_mode>  (571) 
expansion

>  <fragmenstein_error>  (571) 


$$$$
C2688-P180
     RDKit          3D

 68 69  0  0  0  0  0  0  0  0999 V2000
   -1.4280   -7.6560   35.2478 C   0  0  0  0  0  0  0  0  0  0  0  0
   -0.9320   -6.8284   34.1994 N   0  0  0  0  0  0  0  0  0  0  0  0
   -1.0193   -6.9605   32.7802 C   0  0  0  0  0  0  0  0  0  0  0  0
   -1.5981   -7.7571   32.1036 O   0  0  0  0  0  0  0  0  0  0  0  0
   -0.1943   -5.9402   32.0882 C   0  0  0  0  0  0  0  0  0  0  0  0
    0.6158   -6.3637   31.0349 C   0  0  0  0  0  0  0  0  0  0  0  0
    1.6049   -5.5124   30.5618 C   0  0  0  0  0  0  0  0  0  0  0  0
    1.7902   -4.2562   31.1553 C   0  0  0  0  0  0  0  0  0  0  0  0
    3.0104   -3.4388   30.8277 C   0  0  0  0  0  0  0  0  0  0  0  0
    4.2806   -3.9628   31.5266 C   0  0  0  0  0  0  0  0  0  0  0  0
    4.5935   -3.0265   33.0710 S   0  0  0  0  0  0  0  0  0  0  0  0
    5.5123   -3.8535   30.6155 C   0  0  0  0  0  0  0  0  0  0  0  0
    5.4944   -4.8650   29.4594 C   0  0  0  0  0  0  0  0  0  0  0  0
    6.2958   -4.4076   28.2340 C   0  0  0  0  0  0  0  0  0  0  0  0
    5.4921   -4.5301   26.9358 C   0  0  0  0  0  0  0  0  0  0  0  0
    4.3255   -3.5553   26.7920 C   0  0  0  0  0  0  0  0  0  0  0  0
    4.7163   -2.0905   26.5455 C   0  0  0  0  0  0  0  0  0  0  0  0
    4.7508   -1.1689   27.7670 C   0  0  0  0  0  0  0  0  0  0  0  0
    3.4427   -0.8146   28.4782 C   0  0  0  0  0  0  0  0  0  0  0  0
    3.6343   -0.2619   29.8338 N   0  0  0  0  0  0  0  0  0  0  0  0
    2.1525   -1.5668   28.2472 C   0  0  0  0  0  0  0  0  0  0  0  0
    2.3264   -0.2081   27.6350 C   0  0  0  0  0  0  0  0  0  0  0  0
    1.4750    0.9500   28.0701 C   0  0  0  0  0  0  0  0  0  0  0  0
    0.1206    0.5343   28.6317 C   0  0  0  0  0  0  0  0  0  0  0  0
   -0.8120    1.7127   28.8657 C   0  0  0  0  0  0  0  0  0  0  0  0
   -1.4109    2.2657   27.5845 C   0  0  0  0  0  0  0  0  0  0  0  0
   -1.8254    1.2562   29.6583 F   0  0  0  0  0  0  0  0  0  0  0  0
    0.8792   -3.7881   32.1054 C   0  0  0  0  0  0  0  0  0  0  0  0
   -0.1258   -4.6260   32.5647 C   0  0  0  0  0  0  0  0  0  0  0  0
   -2.3110   -8.2004   34.9120 H   0  0  0  0  0  0  0  0  0  0  0  0
   -0.6326   -8.3405   35.5428 H   0  0  0  0  0  0  0  0  0  0  0  0
   -1.6653   -7.0066   36.0898 H   0  0  0  0  0  0  0  0  0  0  0  0
   -0.2834   -6.0839   34.4224 H   0  0  0  0  0  0  0  0  0  0  0  0
    0.5173   -7.3720   30.6406 H   0  0  0  0  0  0  0  0  0  0  0  0
    2.2692   -5.8466   29.7710 H   0  0  0  0  0  0  0  0  0  0  0  0
    2.8191   -2.3910   31.0751 H   0  0  0  0  0  0  0  0  0  0  0  0
    3.1283   -3.4781   29.7450 H   0  0  0  0  0  0  0  0  0  0  0  0
    4.1563   -5.0026   31.8366 H   0  0  0  0  0  0  0  0  0  0  0  0
    3.4281   -3.3172   33.6675 H   0  0  0  0  0  0  0  0  0  0  0  0
    5.5788   -2.8311   30.2338 H   0  0  0  0  0  0  0  0  0  0  0  0
    6.4326   -4.0285   31.1885 H   0  0  0  0  0  0  0  0  0  0  0  0
    4.4713   -5.1227   29.1753 H   0  0  0  0  0  0  0  0  0  0  0  0
    5.9366   -5.8018   29.8189 H   0  0  0  0  0  0  0  0  0  0  0  0
    7.1789   -5.0532   28.1441 H   0  0  0  0  0  0  0  0  0  0  0  0
    6.6842   -3.3919   28.3472 H   0  0  0  0  0  0  0  0  0  0  0  0
    5.1054   -5.5545   26.8570 H   0  0  0  0  0  0  0  0  0  0  0  0
    6.1642   -4.3989   26.0845 H   0  0  0  0  0  0  0  0  0  0  0  0
    3.6629   -3.6669   27.6467 H   0  0  0  0  0  0  0  0  0  0  0  0
    3.7495   -3.8883   25.9197 H   0  0  0  0  0  0  0  0  0  0  0  0
    5.7055   -2.0641   26.0718 H   0  0  0  0  0  0  0  0  0  0  0  0
    4.0369   -1.6599   25.8051 H   0  0  0  0  0  0  0  0  0  0  0  0
    5.1968   -0.2175   27.4452 H   0  0  0  0  0  0  0  0  0  0  0  0
    5.4518   -1.5802   28.4955 H   0  0  0  0  0  0  0  0  0  0  0  0
    4.3577   -0.7626   30.3479 H   0  0  0  0  0  0  0  0  0  0  0  0
    3.9638    0.7023   29.7733 H   0  0  0  0  0  0  0  0  0  0  0  0
    2.0695   -2.3893   27.5579 H   0  0  0  0  0  0  0  0  0  0  0  0
    1.4846   -1.6963   29.0910 H   0  0  0  0  0  0  0  0  0  0  0  0
    2.5142   -0.1533   26.5695 H   0  0  0  0  0  0  0  0  0  0  0  0
    1.3291    1.5932   27.1949 H   0  0  0  0  0  0  0  0  0  0  0  0
    2.0047    1.5704   28.8015 H   0  0  0  0  0  0  0  0  0  0  0  0
   -0.3674   -0.1959   27.9737 H   0  0  0  0  0  0  0  0  0  0  0  0
    0.2603    0.0279   29.5944 H   0  0  0  0  0  0  0  0  0  0  0  0
   -0.3031    2.5073   29.4207 H   0  0  0  0  0  0  0  0  0  0  0  0
   -1.9860    1.4969   27.0586 H   0  0  0  0  0  0  0  0  0  0  0  0
   -2.0998    3.0833   27.8124 H   0  0  0  0  0  0  0  0  0  0  0  0
   -0.6448    2.6528   26.9075 H   0  0  0  0  0  0  0  0  0  0  0  0
    0.9778   -2.7877   32.5239 H   0  0  0  0  0  0  0  0  0  0  0  0
   -0.8101   -4.2673   33.3313 H   0  0  0  0  0  0  0  0  0  0  0  0
  1  2  1  0
  2  3  1  0
  3  4  2  0
  3  5  1  0
  5  6  2  0
  6  7  1  0
  7  8  2  0
  8  9  1  0
  9 10  1  0
 10 11  1  0
 10 12  1  0
 12 13  1  0
 13 14  1  0
 14 15  1  0
 15 16  1  0
 16 17  1  0
 17 18  1  0
 18 19  1  0
 19 20  1  0
 19 21  1  0
 21 22  1  0
 22 23  1  0
 23 24  1  0
 24 25  1  0
 25 26  1  0
 25 27  1  0
  8 28  1  0
 28 29  2  0
 29  5  1  0
 22 19  1  0
  1 30  1  0
  1 31  1  0
  1 32  1  0
  2 33  1  0
  6 34  1  0
  7 35  1  0
  9 36  1  0
  9 37  1  0
 10 38  1  0
 11 39  1  0
 12 40  1  0
 12 41  1  0
 13 42  1  0
 13 43  1  0
 14 44  1  0
 14 45  1  0
 15 46  1  0
 15 47  1  0
 16 48  1  0
 16 49  1  0
 17 50  1  0
 17 51  1  0
 18 52  1  0
 18 53  1  0
 20 54  1  0
 20 55  1  0
 21 56  1  0
 21 57  1  0
 22 58  1  0
 23 59  1  0
 23 60  1  0
 24 61  1  0
 24 62  1  0
 25 63  1  0
 26 64  1  0
 26 65  1  0
 26 66  1  0
 28 67  1  0
 29 68  1  0
M  END
>  <Energy>  (572) 
62.504645185514107

>  <compound_id>  (572) 
2688

>  <target_id>  (572) 
1

>  <reference_id>  (572) 
180

>  <inspiration_ids>  (572) 
[180, 40]

>  <energy_score>  (572) 
-50.1837291999895

>  <distance_score>  (572) 
3.0436864888492634

>  <path>  (572) 
/opt/xchem-fragalysis-2/maxwin/BulkDock/SCRATCH/505736/C2688-P180/C2688-P180.minimised.mol

>  <scratch_subdir>  (572) 
/opt/xchem-fragalysis-2/maxwin/BulkDock/SCRATCH/505736/C2688-P180

>  <fragmenstein_runtime>  (572) 
17.23706340789795

>  <fragmenstein_outcome>  (572) 
too moved

>  <fragmenstein_mode>  (572) 
expansion

>  <fragmenstein_error>  (572) 


$$$$
C2688-P40
     RDKit          3D

 68 69  0  0  0  0  0  0  0  0999 V2000
   -0.3218   -5.7716   36.1301 C   0  0  0  0  0  0  0  0  0  0  0  0
   -0.2097   -5.7661   34.7010 N   0  0  0  0  0  0  0  0  0  0  0  0
   -0.9174   -6.6248   33.6406 C   0  0  0  0  0  0  0  0  0  0  0  0
   -1.6452   -7.5237   33.7617 O   0  0  0  0  0  0  0  0  0  0  0  0
   -0.5283   -6.2072   32.2645 C   0  0  0  0  0  0  0  0  0  0  0  0
   -0.2397   -7.1745   31.2981 C   0  0  0  0  0  0  0  0  0  0  0  0
    0.2829   -6.8004   30.0551 C   0  0  0  0  0  0  0  0  0  0  0  0
    0.5133   -5.4546   29.7683 C   0  0  0  0  0  0  0  0  0  0  0  0
    1.2661   -4.9662   28.5498 C   0  0  0  0  0  0  0  0  0  0  0  0
    2.3815   -5.8816   28.0122 C   0  0  0  0  0  0  0  0  0  0  0  0
    2.8439   -5.3702   26.3374 S   0  0  0  0  0  0  0  0  0  0  0  0
    3.5482   -5.9966   29.0001 C   0  0  0  0  0  0  0  0  0  0  0  0
    4.9947   -5.6883   28.5735 C   0  0  0  0  0  0  0  0  0  0  0  0
    5.3264   -4.2215   28.3099 C   0  0  0  0  0  0  0  0  0  0  0  0
    4.7311   -3.3238   29.3787 C   0  0  0  0  0  0  0  0  0  0  0  0
    5.1276   -1.8596   29.2374 C   0  0  0  0  0  0  0  0  0  0  0  0
    4.5055   -1.1692   28.0284 C   0  0  0  0  0  0  0  0  0  0  0  0
    2.9911   -1.3468   27.9103 C   0  0  0  0  0  0  0  0  0  0  0  0
    2.1771   -0.8718   29.1041 C   0  0  0  0  0  0  0  0  0  0  0  0
    2.5006    0.4491   29.6051 N   0  0  0  0  0  0  0  0  0  0  0  0
    1.6134   -1.7318   30.2074 C   0  0  0  0  0  0  0  0  0  0  0  0
    0.7425   -1.3461   29.0444 C   0  0  0  0  0  0  0  0  0  0  0  0
   -0.4040   -0.4039   29.1873 C   0  0  0  0  0  0  0  0  0  0  0  0
   -0.7958    0.2317   27.8570 C   0  0  0  0  0  0  0  0  0  0  0  0
   -0.0608    1.5029   27.4271 C   0  0  0  0  0  0  0  0  0  0  0  0
   -0.2209    2.6895   28.3564 C   0  0  0  0  0  0  0  0  0  0  0  0
    1.2666    1.2561   27.2727 F   0  0  0  0  0  0  0  0  0  0  0  0
    0.0004   -4.5065   30.6617 C   0  0  0  0  0  0  0  0  0  0  0  0
   -0.4749   -4.8638   31.9180 C   0  0  0  0  0  0  0  0  0  0  0  0
   -0.8671   -6.6619   36.4477 H   0  0  0  0  0  0  0  0  0  0  0  0
    0.6818   -5.7676   36.5601 H   0  0  0  0  0  0  0  0  0  0  0  0
   -0.8613   -4.8735   36.4386 H   0  0  0  0  0  0  0  0  0  0  0  0
    0.4199   -5.1167   34.2450 H   0  0  0  0  0  0  0  0  0  0  0  0
   -0.3766   -8.2260   31.5408 H   0  0  0  0  0  0  0  0  0  0  0  0
    0.5384   -7.5860   29.3537 H   0  0  0  0  0  0  0  0  0  0  0  0
    1.7407   -4.0246   28.8030 H   0  0  0  0  0  0  0  0  0  0  0  0
    0.5392   -4.6938   27.7897 H   0  0  0  0  0  0  0  0  0  0  0  0
    1.9769   -6.8875   27.8839 H   0  0  0  0  0  0  0  0  0  0  0  0
    3.6774   -6.3863   26.0566 H   0  0  0  0  0  0  0  0  0  0  0  0
    3.3190   -5.5000   29.9481 H   0  0  0  0  0  0  0  0  0  0  0  0
    3.5975   -7.0503   29.2516 H   0  0  0  0  0  0  0  0  0  0  0  0
    5.2841   -6.2972   27.7090 H   0  0  0  0  0  0  0  0  0  0  0  0
    5.6461   -6.0291   29.3906 H   0  0  0  0  0  0  0  0  0  0  0  0
    4.9807   -3.9130   27.3211 H   0  0  0  0  0  0  0  0  0  0  0  0
    6.4176   -4.1090   28.2927 H   0  0  0  0  0  0  0  0  0  0  0  0
    3.6561   -3.4206   29.3987 H   0  0  0  0  0  0  0  0  0  0  0  0
    5.0871   -3.6673   30.3590 H   0  0  0  0  0  0  0  0  0  0  0  0
    4.8290   -1.3316   30.1505 H   0  0  0  0  0  0  0  0  0  0  0  0
    6.2193   -1.7713   29.1804 H   0  0  0  0  0  0  0  0  0  0  0  0
    4.9705   -1.5512   27.1113 H   0  0  0  0  0  0  0  0  0  0  0  0
    4.7575   -0.1025   28.0643 H   0  0  0  0  0  0  0  0  0  0  0  0
    2.7601   -2.3872   27.6664 H   0  0  0  0  0  0  0  0  0  0  0  0
    2.6658   -0.7691   27.0360 H   0  0  0  0  0  0  0  0  0  0  0  0
    3.4901    0.5478   29.8207 H   0  0  0  0  0  0  0  0  0  0  0  0
    2.3165    1.1317   28.8611 H   0  0  0  0  0  0  0  0  0  0  0  0
    1.4023   -1.2635   31.1663 H   0  0  0  0  0  0  0  0  0  0  0  0
    2.0371   -2.7090   30.3375 H   0  0  0  0  0  0  0  0  0  0  0  0
    0.4950   -2.1236   28.3285 H   0  0  0  0  0  0  0  0  0  0  0  0
   -0.2287    0.3516   29.9591 H   0  0  0  0  0  0  0  0  0  0  0  0
   -1.2577   -0.9964   29.5418 H   0  0  0  0  0  0  0  0  0  0  0  0
   -0.6943   -0.5129   27.0663 H   0  0  0  0  0  0  0  0  0  0  0  0
   -1.8641    0.4800   27.9097 H   0  0  0  0  0  0  0  0  0  0  0  0
   -0.4369    1.7994   26.4425 H   0  0  0  0  0  0  0  0  0  0  0  0
    0.1625    2.4794   29.3580 H   0  0  0  0  0  0  0  0  0  0  0  0
    0.3534    3.5402   27.9745 H   0  0  0  0  0  0  0  0  0  0  0  0
   -1.2692    2.9905   28.4255 H   0  0  0  0  0  0  0  0  0  0  0  0
   -0.0319   -3.4589   30.3963 H   0  0  0  0  0  0  0  0  0  0  0  0
   -0.8105   -4.0913   32.6067 H   0  0  0  0  0  0  0  0  0  0  0  0
  1  2  1  0
  2  3  1  0
  3  4  2  0
  3  5  1  0
  5  6  2  0
  6  7  1  0
  7  8  2  0
  8  9  1  0
  9 10  1  0
 10 11  1  0
 10 12  1  0
 12 13  1  0
 13 14  1  0
 14 15  1  0
 15 16  1  0
 16 17  1  0
 17 18  1  0
 18 19  1  0
 19 20  1  0
 19 21  1  0
 21 22  1  0
 22 23  1  0
 23 24  1  0
 24 25  1  0
 25 26  1  0
 25 27  1  0
  8 28  1  0
 28 29  2  0
 29  5  1  0
 22 19  1  0
  1 30  1  0
  1 31  1  0
  1 32  1  0
  2 33  1  0
  6 34  1  0
  7 35  1  0
  9 36  1  0
  9 37  1  0
 10 38  1  0
 11 39  1  0
 12 40  1  0
 12 41  1  0
 13 42  1  0
 13 43  1  0
 14 44  1  0
 14 45  1  0
 15 46  1  0
 15 47  1  0
 16 48  1  0
 16 49  1  0
 17 50  1  0
 17 51  1  0
 18 52  1  0
 18 53  1  0
 20 54  1  0
 20 55  1  0
 21 56  1  0
 21 57  1  0
 22 58  1  0
 23 59  1  0
 23 60  1  0
 24 61  1  0
 24 62  1  0
 25 63  1  0
 26 64  1  0
 26 65  1  0
 26 66  1  0
 28 67  1  0
 29 68  1  0
M  END
>  <Energy>  (573) 
74.320208461223444

>  <compound_id>  (573) 
2688

>  <target_id>  (573) 
1

>  <reference_id>  (573) 
40

>  <inspiration_ids>  (573) 
[180, 40]

>  <energy_score>  (573) 
-27.373012740777426

>  <distance_score>  (573) 
2.4047534746682113

>  <path>  (573) 
/opt/xchem-fragalysis-2/maxwin/BulkDock/SCRATCH/505736/C2688-P40/C2688-P40.minimised.mol

>  <scratch_subdir>  (573) 
/opt/xchem-fragalysis-2/maxwin/BulkDock/SCRATCH/505736/C2688-P40

>  <fragmenstein_runtime>  (573) 
12.984244346618652

>  <fragmenstein_outcome>  (573) 
too moved

>  <fragmenstein_mode>  (573) 
expansion

>  <fragmenstein_error>  (573) 


$$$$
C2689-P180
     RDKit          3D

 45 49  0  0  0  0  0  0  0  0999 V2000
    0.5400   -3.2633   34.2406 O   0  0  0  0  0  0  0  0  0  0  0  0
    0.7332   -4.3093   34.7097 C   0  0  0  0  0  0  0  0  0  0  0  0
    1.5918   -4.7159   35.9101 N   0  0  0  0  0  0  0  0  0  0  0  0
    2.4721   -3.9373   36.7332 C   0  0  0  0  0  0  0  0  0  0  0  0
    3.8583   -4.1662   36.1912 C   0  0  0  0  0  0  0  0  0  0  0  0
    4.8215   -4.8499   36.9452 C   0  0  0  0  0  0  0  0  0  0  0  0
    6.0481   -5.1923   36.3745 C   0  0  0  0  0  0  0  0  0  0  0  0
    6.3125   -4.8713   35.0442 C   0  0  0  0  0  0  0  0  0  0  0  0
    5.3604   -4.1882   34.2892 C   0  0  0  0  0  0  0  0  0  0  0  0
    4.1523   -3.8107   34.8654 C   0  0  0  0  0  0  0  0  0  0  0  0
    0.1939   -5.5433   34.0831 C   0  0  0  0  0  0  0  0  0  0  0  0
   -0.8409   -6.3147   34.7551 C   0  0  0  0  0  0  0  0  0  0  0  0
   -1.4306   -7.3527   34.1389 C   0  0  0  0  0  0  0  0  0  0  0  0
   -1.1188   -7.6276   32.7816 C   0  0  0  0  0  0  0  0  0  0  0  0
   -1.6533   -8.4314   31.8915 N   0  0  0  0  0  0  0  0  0  0  0  0
   -0.9594   -8.2934   30.7184 N   0  0  0  0  0  0  0  0  0  0  0  0
   -0.0086   -7.4129   30.9210 C   0  0  0  0  0  0  0  0  0  0  0  0
   -0.0741   -6.9278   32.2009 N   0  0  0  0  0  0  0  0  0  0  0  0
    0.6369   -5.9161   32.8568 C   0  0  0  0  0  0  0  0  0  0  0  0
    2.1082   -5.3245   32.1494 S   0  0  0  0  0  0  0  0  0  0  0  0
    1.5602   -4.1437   31.0243 C   0  0  0  0  0  0  0  0  0  0  0  0
    2.2975   -3.7009   30.0344 N   0  0  0  0  0  0  0  0  0  0  0  0
    1.5610   -2.6927   29.4690 C   0  0  0  0  0  0  0  0  0  0  0  0
    1.9008   -1.8016   28.4429 C   0  0  0  0  0  0  0  0  0  0  0  0
    0.9491   -0.8551   28.0448 C   0  0  0  0  0  0  0  0  0  0  0  0
   -0.3159   -0.8322   28.6226 C   0  0  0  0  0  0  0  0  0  0  0  0
   -1.2177    0.0520   28.1776 F   0  0  0  0  0  0  0  0  0  0  0  0
   -0.6628   -1.6831   29.6702 C   0  0  0  0  0  0  0  0  0  0  0  0
    0.3137   -2.5898   30.0778 C   0  0  0  0  0  0  0  0  0  0  0  0
    0.3648   -3.4918   31.1086 N   0  0  0  0  0  0  0  0  0  0  0  0
    1.4687   -5.7034   36.0941 H   0  0  0  0  0  0  0  0  0  0  0  0
    2.3681   -4.2722   37.7690 H   0  0  0  0  0  0  0  0  0  0  0  0
    2.2032   -2.8792   36.6593 H   0  0  0  0  0  0  0  0  0  0  0  0
    4.6169   -5.1388   37.9735 H   0  0  0  0  0  0  0  0  0  0  0  0
    6.7937   -5.7205   36.9635 H   0  0  0  0  0  0  0  0  0  0  0  0
    7.2650   -5.1444   34.5973 H   0  0  0  0  0  0  0  0  0  0  0  0
    5.5718   -3.9255   33.2552 H   0  0  0  0  0  0  0  0  0  0  0  0
    3.4285   -3.2610   34.2670 H   0  0  0  0  0  0  0  0  0  0  0  0
   -1.1059   -6.0533   35.7768 H   0  0  0  0  0  0  0  0  0  0  0  0
   -2.1711   -7.9708   34.6352 H   0  0  0  0  0  0  0  0  0  0  0  0
    0.7115   -7.0828   30.1868 H   0  0  0  0  0  0  0  0  0  0  0  0
    2.8787   -1.8429   27.9773 H   0  0  0  0  0  0  0  0  0  0  0  0
    1.1835   -0.1421   27.2625 H   0  0  0  0  0  0  0  0  0  0  0  0
   -1.6312   -1.6120   30.1452 H   0  0  0  0  0  0  0  0  0  0  0  0
   -0.3028   -3.5587   31.8628 H   0  0  0  0  0  0  0  0  0  0  0  0
  1  2  2  0
  2  3  1  0
  3  4  1  0
  4  5  1  0
  5  6  2  0
  6  7  1  0
  7  8  2  0
  8  9  1  0
  9 10  2  0
  2 11  1  0
 11 12  1  0
 12 13  2  0
 13 14  1  0
 14 15  2  0
 15 16  1  0
 16 17  2  0
 17 18  1  0
 18 19  1  0
 19 20  1  0
 20 21  1  0
 21 22  2  0
 22 23  1  0
 23 24  2  0
 24 25  1  0
 25 26  2  0
 26 27  1  0
 26 28  1  0
 28 29  2  0
 29 30  1  0
 10  5  1  0
 19 11  2  0
 30 21  1  0
 18 14  1  0
 29 23  1  0
  3 31  1  0
  4 32  1  0
  4 33  1  0
  6 34  1  0
  7 35  1  0
  8 36  1  0
  9 37  1  0
 10 38  1  0
 12 39  1  0
 13 40  1  0
 17 41  1  0
 24 42  1  0
 25 43  1  0
 28 44  1  0
 30 45  1  0
M  END
>  <Energy>  (574) 
40.11440826466292

>  <compound_id>  (574) 
2689

>  <target_id>  (574) 
1

>  <reference_id>  (574) 
180

>  <inspiration_ids>  (574) 
[180, 41]

>  <energy_score>  (574) 
-14.0148055224291

>  <distance_score>  (574) 
0.8915851128156349

>  <path>  (574) 
/opt/xchem-fragalysis-2/maxwin/BulkDock/SCRATCH/505736/C2689-P180/C2689-P180.minimised.mol

>  <scratch_subdir>  (574) 
/opt/xchem-fragalysis-2/maxwin/BulkDock/SCRATCH/505736/C2689-P180

>  <fragmenstein_runtime>  (574) 
2.2198243141174316

>  <fragmenstein_outcome>  (574) 
acceptable

>  <fragmenstein_mode>  (574) 
expansion

>  <fragmenstein_error>  (574) 


$$$$
C2689-P41
     RDKit          3D

 45 49  0  0  0  0  0  0  0  0999 V2000
    0.5429   -3.2426   34.2734 O   0  0  0  0  0  0  0  0  0  0  0  0
    0.7273   -4.2934   34.7352 C   0  0  0  0  0  0  0  0  0  0  0  0
    1.5961   -4.7180   35.9225 N   0  0  0  0  0  0  0  0  0  0  0  0
    2.4985   -3.9555   36.7375 C   0  0  0  0  0  0  0  0  0  0  0  0
    3.8726   -4.1852   36.1650 C   0  0  0  0  0  0  0  0  0  0  0  0
    4.8484   -4.8774   36.8949 C   0  0  0  0  0  0  0  0  0  0  0  0
    6.0609   -5.2229   36.2965 C   0  0  0  0  0  0  0  0  0  0  0  0
    6.2986   -4.8962   34.9627 C   0  0  0  0  0  0  0  0  0  0  0  0
    5.3345   -4.2039   34.2320 C   0  0  0  0  0  0  0  0  0  0  0  0
    4.1407   -3.8235   34.8355 C   0  0  0  0  0  0  0  0  0  0  0  0
    0.1628   -5.5186   34.1115 C   0  0  0  0  0  0  0  0  0  0  0  0
   -0.8493   -6.2971   34.8101 C   0  0  0  0  0  0  0  0  0  0  0  0
   -1.4657   -7.3255   34.2032 C   0  0  0  0  0  0  0  0  0  0  0  0
   -1.1959   -7.5926   32.8364 C   0  0  0  0  0  0  0  0  0  0  0  0
   -1.7640   -8.3853   31.9563 N   0  0  0  0  0  0  0  0  0  0  0  0
   -1.1101   -8.2321   30.7620 N   0  0  0  0  0  0  0  0  0  0  0  0
   -0.1393   -7.3696   30.9489 C   0  0  0  0  0  0  0  0  0  0  0  0
   -0.1666   -6.8911   32.2311 N   0  0  0  0  0  0  0  0  0  0  0  0
    0.5660   -5.8826   32.8692 C   0  0  0  0  0  0  0  0  0  0  0  0
    2.0171   -5.2856   32.1247 S   0  0  0  0  0  0  0  0  0  0  0  0
    1.4481   -4.1171   30.9970 C   0  0  0  0  0  0  0  0  0  0  0  0
    2.1867   -3.6499   30.0190 N   0  0  0  0  0  0  0  0  0  0  0  0
    1.4230   -2.6736   29.4335 C   0  0  0  0  0  0  0  0  0  0  0  0
    1.7464   -1.7829   28.4012 C   0  0  0  0  0  0  0  0  0  0  0  0
    0.7688   -0.8746   27.9783 C   0  0  0  0  0  0  0  0  0  0  0  0
   -0.5021   -0.8849   28.5439 C   0  0  0  0  0  0  0  0  0  0  0  0
   -1.4208   -0.0226   28.0902 F   0  0  0  0  0  0  0  0  0  0  0  0
   -0.8402   -1.7434   29.5894 C   0  0  0  0  0  0  0  0  0  0  0  0
    0.1625   -2.6112   30.0217 C   0  0  0  0  0  0  0  0  0  0  0  0
    0.2289   -3.5078   31.0575 N   0  0  0  0  0  0  0  0  0  0  0  0
    1.5910   -5.7270   36.0008 H   0  0  0  0  0  0  0  0  0  0  0  0
    2.2344   -2.8950   36.6842 H   0  0  0  0  0  0  0  0  0  0  0  0
    2.4139   -4.3057   37.7700 H   0  0  0  0  0  0  0  0  0  0  0  0
    4.6645   -5.1709   37.9258 H   0  0  0  0  0  0  0  0  0  0  0  0
    6.8160   -5.7587   36.8662 H   0  0  0  0  0  0  0  0  0  0  0  0
    7.2396   -5.1726   34.4939 H   0  0  0  0  0  0  0  0  0  0  0  0
    5.5252   -3.9369   33.1950 H   0  0  0  0  0  0  0  0  0  0  0  0
    3.4078   -3.2666   34.2548 H   0  0  0  0  0  0  0  0  0  0  0  0
   -1.0776   -6.0441   35.8423 H   0  0  0  0  0  0  0  0  0  0  0  0
   -2.1957   -7.9441   34.7133 H   0  0  0  0  0  0  0  0  0  0  0  0
    0.5745   -7.0482   30.2071 H   0  0  0  0  0  0  0  0  0  0  0  0
    2.7304   -1.7976   27.9472 H   0  0  0  0  0  0  0  0  0  0  0  0
    0.9861   -0.1666   27.1862 H   0  0  0  0  0  0  0  0  0  0  0  0
   -1.8252   -1.7086   30.0363 H   0  0  0  0  0  0  0  0  0  0  0  0
   -0.4540   -3.6037   31.7938 H   0  0  0  0  0  0  0  0  0  0  0  0
  1  2  2  0
  2  3  1  0
  3  4  1  0
  4  5  1  0
  5  6  2  0
  6  7  1  0
  7  8  2  0
  8  9  1  0
  9 10  2  0
  2 11  1  0
 11 12  1  0
 12 13  2  0
 13 14  1  0
 14 15  2  0
 15 16  1  0
 16 17  2  0
 17 18  1  0
 18 19  1  0
 19 20  1  0
 20 21  1  0
 21 22  2  0
 22 23  1  0
 23 24  2  0
 24 25  1  0
 25 26  2  0
 26 27  1  0
 26 28  1  0
 28 29  2  0
 29 30  1  0
 10  5  1  0
 19 11  2  0
 30 21  1  0
 18 14  1  0
 29 23  1  0
  3 31  1  0
  4 32  1  0
  4 33  1  0
  6 34  1  0
  7 35  1  0
  8 36  1  0
  9 37  1  0
 10 38  1  0
 12 39  1  0
 13 40  1  0
 17 41  1  0
 24 42  1  0
 25 43  1  0
 28 44  1  0
 30 45  1  0
M  END
>  <Energy>  (575) 
39.815010447480311

>  <compound_id>  (575) 
2689

>  <target_id>  (575) 
1

>  <reference_id>  (575) 
41

>  <inspiration_ids>  (575) 
[180, 41]

>  <energy_score>  (575) 
-14.314203339611709

>  <distance_score>  (575) 
0.8701181009325111

>  <path>  (575) 
/opt/xchem-fragalysis-2/maxwin/BulkDock/SCRATCH/505736/C2689-P41/C2689-P41.minimised.mol

>  <scratch_subdir>  (575) 
/opt/xchem-fragalysis-2/maxwin/BulkDock/SCRATCH/505736/C2689-P41

>  <fragmenstein_runtime>  (575) 
2.23203182220459

>  <fragmenstein_outcome>  (575) 
acceptable

>  <fragmenstein_mode>  (575) 
expansion

>  <fragmenstein_error>  (575) 


$$$$
C2690-P180
     RDKit          3D

 66 70  0  0  0  0  0  0  0  0999 V2000
   -1.6146    2.2225   27.2230 C   0  0  0  0  0  0  0  0  0  0  0  0
   -1.2490    1.2801   28.3683 C   0  0  0  0  0  0  0  0  0  0  0  0
    0.2664    1.1678   28.6708 C   0  0  0  0  0  0  0  0  0  0  0  0
    0.8902    2.5124   29.0529 C   0  0  0  0  0  0  0  0  0  0  0  0
    0.3306    2.9844   30.2612 O   0  0  0  0  0  0  0  0  0  0  0  0
    0.5875    0.0876   29.7831 C   0  0  0  0  0  0  0  0  0  0  0  0
    0.7649   -1.2775   29.1607 C   0  0  0  0  0  0  0  0  0  0  0  0
   -0.4739   -1.9376   28.5931 C   0  0  0  0  0  0  0  0  0  0  0  0
   -0.0260   -3.3796   28.4754 C   0  0  0  0  0  0  0  0  0  0  0  0
    1.5059   -3.3098   28.5974 C   0  0  0  0  0  0  0  0  0  0  0  0
    2.4298   -4.3478   29.1719 C   0  0  0  0  0  0  0  0  0  0  0  0
    2.8445   -5.5850   28.3720 C   0  0  0  0  0  0  0  0  0  0  0  0
    3.4441   -5.2516   27.0155 C   0  0  0  0  0  0  0  0  0  0  0  0
    1.8785   -4.5516   30.4835 N   0  0  0  0  0  0  0  0  0  0  0  0
    0.9572   -5.6033   30.5057 C   0  0  0  0  0  0  0  0  0  0  0  0
    0.0079   -5.8305   29.7700 O   0  0  0  0  0  0  0  0  0  0  0  0
    1.3978   -6.6649   31.4111 C   0  0  0  0  0  0  0  0  0  0  0  0
    0.5358   -6.8375   32.6028 C   0  0  0  0  0  0  0  0  0  0  0  0
   -0.5025   -7.8423   32.4019 N   0  0  0  0  0  0  0  0  0  0  0  0
   -1.2390   -7.7182   33.6442 N   0  0  0  0  0  0  0  0  0  0  0  0
   -1.0468   -6.3316   34.0814 C   0  0  0  0  0  0  0  0  0  0  0  0
   -0.3896   -6.3331   35.4604 C   0  0  0  0  0  0  0  0  0  0  0  0
    0.2680   -4.9978   35.7961 C   0  0  0  0  0  0  0  0  0  0  0  0
    0.0898   -3.9451   34.7027 C   0  0  0  0  0  0  0  0  0  0  0  0
    0.4714   -4.4929   33.3223 C   0  0  0  0  0  0  0  0  0  0  0  0
    0.0327   -3.1853   32.0400 S   0  0  0  0  0  0  0  0  0  0  0  0
    1.4587   -3.2075   30.9444 C   0  0  0  0  0  0  0  0  0  0  0  0
    1.5907   -2.3470   29.7256 N   0  0  0  0  0  0  0  0  0  0  0  0
   -0.2551   -5.7221   33.0263 N   0  0  0  0  0  0  0  0  0  0  0  0
   -1.4269    3.2655   27.4943 H   0  0  0  0  0  0  0  0  0  0  0  0
   -2.6774    2.1318   26.9784 H   0  0  0  0  0  0  0  0  0  0  0  0
   -1.0380    1.9891   26.3244 H   0  0  0  0  0  0  0  0  0  0  0  0
   -1.6461    0.2988   28.1097 H   0  0  0  0  0  0  0  0  0  0  0  0
   -1.7763    1.5982   29.2738 H   0  0  0  0  0  0  0  0  0  0  0  0
    0.7592    0.8757   27.7341 H   0  0  0  0  0  0  0  0  0  0  0  0
    1.9695    2.4010   29.2035 H   0  0  0  0  0  0  0  0  0  0  0  0
    0.7567    3.2638   28.2677 H   0  0  0  0  0  0  0  0  0  0  0  0
   -0.2397    3.7438   30.0311 H   0  0  0  0  0  0  0  0  0  0  0  0
   -0.1905    0.0788   30.5548 H   0  0  0  0  0  0  0  0  0  0  0  0
    1.5270    0.3589   30.2811 H   0  0  0  0  0  0  0  0  0  0  0  0
    1.3641   -1.0019   28.2761 H   0  0  0  0  0  0  0  0  0  0  0  0
   -1.3410   -1.8510   29.2550 H   0  0  0  0  0  0  0  0  0  0  0  0
   -0.7319   -1.5393   27.6102 H   0  0  0  0  0  0  0  0  0  0  0  0
   -0.3780   -3.8598   27.5783 H   0  0  0  0  0  0  0  0  0  0  0  0
   -0.5494   -3.8818   29.2823 H   0  0  0  0  0  0  0  0  0  0  0  0
    1.9566   -2.9036   27.6846 H   0  0  0  0  0  0  0  0  0  0  0  0
    3.4008   -3.8542   29.3612 H   0  0  0  0  0  0  0  0  0  0  0  0
    2.0323   -6.2929   28.2452 H   0  0  0  0  0  0  0  0  0  0  0  0
    3.6036   -6.1271   28.9507 H   0  0  0  0  0  0  0  0  0  0  0  0
    2.7130   -4.7715   26.3629 H   0  0  0  0  0  0  0  0  0  0  0  0
    4.3045   -4.5831   27.1193 H   0  0  0  0  0  0  0  0  0  0  0  0
    3.7850   -6.1663   26.5199 H   0  0  0  0  0  0  0  0  0  0  0  0
    2.4251   -6.4646   31.7286 H   0  0  0  0  0  0  0  0  0  0  0  0
    1.3363   -7.5657   30.7988 H   0  0  0  0  0  0  0  0  0  0  0  0
    1.2063   -7.1894   33.4028 H   0  0  0  0  0  0  0  0  0  0  0  0
   -1.0689   -7.4897   31.6217 H   0  0  0  0  0  0  0  0  0  0  0  0
   -2.2127   -7.9878   33.5533 H   0  0  0  0  0  0  0  0  0  0  0  0
   -1.9934   -5.8202   34.1357 H   0  0  0  0  0  0  0  0  0  0  0  0
   -1.1426   -6.5736   36.2216 H   0  0  0  0  0  0  0  0  0  0  0  0
    0.3714   -7.1207   35.5461 H   0  0  0  0  0  0  0  0  0  0  0  0
   -0.1298   -4.6140   36.7429 H   0  0  0  0  0  0  0  0  0  0  0  0
    1.3405   -5.1618   35.9612 H   0  0  0  0  0  0  0  0  0  0  0  0
    0.7071   -3.0716   34.9476 H   0  0  0  0  0  0  0  0  0  0  0  0
   -0.9542   -3.6026   34.7141 H   0  0  0  0  0  0  0  0  0  0  0  0
    1.5588   -4.6362   33.3155 H   0  0  0  0  0  0  0  0  0  0  0  0
    2.2874   -2.8743   31.5807 H   0  0  0  0  0  0  0  0  0  0  0  0
  1  2  1  0
  2  3  1  0
  3  4  1  0
  4  5  1  0
  3  6  1  0
  6  7  1  0
  7  8  1  0
  8  9  1  0
  9 10  1  0
 10 11  1  0
 11 12  1  0
 12 13  1  0
 11 14  1  0
 14 15  1  0
 15 16  2  0
 15 17  1  0
 17 18  1  0
 18 19  1  0
 19 20  1  0
 20 21  1  0
 21 22  1  0
 22 23  1  0
 23 24  1  0
 24 25  1  0
 25 26  1  0
 26 27  1  0
 27 28  1  0
 25 29  1  0
 28  7  1  0
 28 10  1  0
 27 14  1  0
 29 18  1  0
 29 21  1  0
  1 30  1  0
  1 31  1  0
  1 32  1  0
  2 33  1  0
  2 34  1  0
  3 35  1  0
  4 36  1  0
  4 37  1  0
  5 38  1  0
  6 39  1  0
  6 40  1  0
  7 41  1  0
  8 42  1  0
  8 43  1  0
  9 44  1  0
  9 45  1  0
 10 46  1  0
 11 47  1  0
 12 48  1  0
 12 49  1  0
 13 50  1  0
 13 51  1  0
 13 52  1  0
 17 53  1  0
 17 54  1  0
 18 55  1  0
 19 56  1  0
 20 57  1  0
 21 58  1  0
 22 59  1  0
 22 60  1  0
 23 61  1  0
 23 62  1  0
 24 63  1  0
 24 64  1  0
 25 65  1  0
 27 66  1  0
M  END
>  <Energy>  (576) 
44.399854338894372

>  <compound_id>  (576) 
2690

>  <target_id>  (576) 
1

>  <reference_id>  (576) 
180

>  <inspiration_ids>  (576) 
[180, 44]

>  <energy_score>  (576) 
-86.5761679498714

>  <distance_score>  (576) 
1.7751228701108346

>  <path>  (576) 
/opt/xchem-fragalysis-2/maxwin/BulkDock/SCRATCH/505736/C2690-P180/C2690-P180.minimised.mol

>  <scratch_subdir>  (576) 
/opt/xchem-fragalysis-2/maxwin/BulkDock/SCRATCH/505736/C2690-P180

>  <fragmenstein_runtime>  (576) 
14.277788162231445

>  <fragmenstein_outcome>  (576) 
too moved

>  <fragmenstein_mode>  (576) 
expansion

>  <fragmenstein_error>  (576) 


$$$$
C2690-P44
     RDKit          3D

 66 70  0  0  0  0  0  0  0  0999 V2000
   -1.8845    2.1174   27.2488 C   0  0  0  0  0  0  0  0  0  0  0  0
   -1.4233    1.0654   28.2549 C   0  0  0  0  0  0  0  0  0  0  0  0
    0.0793    1.1265   28.6636 C   0  0  0  0  0  0  0  0  0  0  0  0
    0.5641    2.5293   29.0469 C   0  0  0  0  0  0  0  0  0  0  0  0
    0.0711    2.8931   30.3193 O   0  0  0  0  0  0  0  0  0  0  0  0
    0.4578    0.0917   29.8086 C   0  0  0  0  0  0  0  0  0  0  0  0
    0.8390   -1.2392   29.2099 C   0  0  0  0  0  0  0  0  0  0  0  0
   -0.2760   -1.9239   28.4521 C   0  0  0  0  0  0  0  0  0  0  0  0
    0.2258   -3.3373   28.3885 C   0  0  0  0  0  0  0  0  0  0  0  0
    1.7206   -3.2240   28.6800 C   0  0  0  0  0  0  0  0  0  0  0  0
    2.5507   -4.3182   29.2898 C   0  0  0  0  0  0  0  0  0  0  0  0
    2.9527   -5.5421   28.4707 C   0  0  0  0  0  0  0  0  0  0  0  0
    3.6821   -5.1932   27.1828 C   0  0  0  0  0  0  0  0  0  0  0  0
    1.8714   -4.5316   30.5382 N   0  0  0  0  0  0  0  0  0  0  0  0
    0.9093   -5.5523   30.5128 C   0  0  0  0  0  0  0  0  0  0  0  0
   -0.2110   -5.5941   30.0293 O   0  0  0  0  0  0  0  0  0  0  0  0
    1.3965   -6.7408   31.2291 C   0  0  0  0  0  0  0  0  0  0  0  0
    0.6389   -6.9589   32.5001 C   0  0  0  0  0  0  0  0  0  0  0  0
   -0.5046   -7.8482   32.2945 N   0  0  0  0  0  0  0  0  0  0  0  0
   -1.1884   -7.6877   33.5537 N   0  0  0  0  0  0  0  0  0  0  0  0
   -1.0149   -6.2861   33.9185 C   0  0  0  0  0  0  0  0  0  0  0  0
   -0.6978   -6.1360   35.3909 C   0  0  0  0  0  0  0  0  0  0  0  0
   -0.3409   -4.6840   35.6663 C   0  0  0  0  0  0  0  0  0  0  0  0
    0.8754   -4.2753   34.8436 C   0  0  0  0  0  0  0  0  0  0  0  0
    0.7974   -4.6217   33.3496 C   0  0  0  0  0  0  0  0  0  0  0  0
    0.2146   -3.1710   32.2680 S   0  0  0  0  0  0  0  0  0  0  0  0
    1.4914   -3.1878   31.0089 C   0  0  0  0  0  0  0  0  0  0  0  0
    1.6569   -2.2849   29.8322 N   0  0  0  0  0  0  0  0  0  0  0  0
    0.0063   -5.7935   33.0357 N   0  0  0  0  0  0  0  0  0  0  0  0
   -1.8982    3.1161   27.6950 H   0  0  0  0  0  0  0  0  0  0  0  0
   -2.9030    1.8951   26.9134 H   0  0  0  0  0  0  0  0  0  0  0  0
   -1.2332    2.1310   26.3697 H   0  0  0  0  0  0  0  0  0  0  0  0
   -1.6466    0.1006   27.7980 H   0  0  0  0  0  0  0  0  0  0  0  0
   -2.0538    1.1098   29.1446 H   0  0  0  0  0  0  0  0  0  0  0  0
    0.6437    0.8775   27.7541 H   0  0  0  0  0  0  0  0  0  0  0  0
    1.6582    2.5441   29.1015 H   0  0  0  0  0  0  0  0  0  0  0  0
    0.2723    3.2805   28.3070 H   0  0  0  0  0  0  0  0  0  0  0  0
   -0.1402    3.8470   30.2791 H   0  0  0  0  0  0  0  0  0  0  0  0
   -0.3646   -0.0110   30.5254 H   0  0  0  0  0  0  0  0  0  0  0  0
    1.3228    0.4727   30.3662 H   0  0  0  0  0  0  0  0  0  0  0  0
    1.5366   -0.8897   28.4279 H   0  0  0  0  0  0  0  0  0  0  0  0
   -1.2405   -1.8762   28.9696 H   0  0  0  0  0  0  0  0  0  0  0  0
   -0.3797   -1.5092   27.4506 H   0  0  0  0  0  0  0  0  0  0  0  0
    0.0048   -3.8542   27.4750 H   0  0  0  0  0  0  0  0  0  0  0  0
   -0.3745   -3.8212   29.1421 H   0  0  0  0  0  0  0  0  0  0  0  0
    2.2588   -2.7863   27.8292 H   0  0  0  0  0  0  0  0  0  0  0  0
    3.5204   -3.8747   29.5768 H   0  0  0  0  0  0  0  0  0  0  0  0
    2.1046   -6.1737   28.2408 H   0  0  0  0  0  0  0  0  0  0  0  0
    3.6192   -6.1656   29.0795 H   0  0  0  0  0  0  0  0  0  0  0  0
    3.0397   -4.6385   26.4959 H   0  0  0  0  0  0  0  0  0  0  0  0
    4.5719   -4.5893   27.3865 H   0  0  0  0  0  0  0  0  0  0  0  0
    4.0035   -6.1074   26.6733 H   0  0  0  0  0  0  0  0  0  0  0  0
    2.4435   -6.5770   31.4778 H   0  0  0  0  0  0  0  0  0  0  0  0
    1.2573   -7.5749   30.5368 H   0  0  0  0  0  0  0  0  0  0  0  0
    1.3155   -7.4155   33.2368 H   0  0  0  0  0  0  0  0  0  0  0  0
   -1.0487   -7.4135   31.5395 H   0  0  0  0  0  0  0  0  0  0  0  0
   -2.1543   -8.0014   33.5533 H   0  0  0  0  0  0  0  0  0  0  0  0
   -1.9087   -5.7397   33.6676 H   0  0  0  0  0  0  0  0  0  0  0  0
   -1.5594   -6.4270   35.9987 H   0  0  0  0  0  0  0  0  0  0  0  0
    0.1377   -6.7839   35.6871 H   0  0  0  0  0  0  0  0  0  0  0  0
   -1.1868   -4.0297   35.4274 H   0  0  0  0  0  0  0  0  0  0  0  0
   -0.1262   -4.5508   36.7327 H   0  0  0  0  0  0  0  0  0  0  0  0
    1.7363   -4.8144   35.2645 H   0  0  0  0  0  0  0  0  0  0  0  0
    1.0871   -3.2103   34.9952 H   0  0  0  0  0  0  0  0  0  0  0  0
    1.8446   -4.7758   33.0665 H   0  0  0  0  0  0  0  0  0  0  0  0
    2.3653   -2.8961   31.6066 H   0  0  0  0  0  0  0  0  0  0  0  0
  1  2  1  0
  2  3  1  0
  3  4  1  0
  4  5  1  0
  3  6  1  0
  6  7  1  0
  7  8  1  0
  8  9  1  0
  9 10  1  0
 10 11  1  0
 11 12  1  0
 12 13  1  0
 11 14  1  0
 14 15  1  0
 15 16  2  0
 15 17  1  0
 17 18  1  0
 18 19  1  0
 19 20  1  0
 20 21  1  0
 21 22  1  0
 22 23  1  0
 23 24  1  0
 24 25  1  0
 25 26  1  0
 26 27  1  0
 27 28  1  0
 25 29  1  0
 28  7  1  0
 28 10  1  0
 27 14  1  0
 29 18  1  0
 29 21  1  0
  1 30  1  0
  1 31  1  0
  1 32  1  0
  2 33  1  0
  2 34  1  0
  3 35  1  0
  4 36  1  0
  4 37  1  0
  5 38  1  0
  6 39  1  0
  6 40  1  0
  7 41  1  0
  8 42  1  0
  8 43  1  0
  9 44  1  0
  9 45  1  0
 10 46  1  0
 11 47  1  0
 12 48  1  0
 12 49  1  0
 13 50  1  0
 13 51  1  0
 13 52  1  0
 17 53  1  0
 17 54  1  0
 18 55  1  0
 19 56  1  0
 20 57  1  0
 21 58  1  0
 22 59  1  0
 22 60  1  0
 23 61  1  0
 23 62  1  0
 24 63  1  0
 24 64  1  0
 25 65  1  0
 27 66  1  0
M  END
>  <Energy>  (577) 
50.186190086121997

>  <compound_id>  (577) 
2690

>  <target_id>  (577) 
1

>  <reference_id>  (577) 
44

>  <inspiration_ids>  (577) 
[180, 44]

>  <energy_score>  (577) 
-80.7898322026424

>  <distance_score>  (577) 
1.7434712383359054

>  <path>  (577) 
/opt/xchem-fragalysis-2/maxwin/BulkDock/SCRATCH/505736/C2690-P44/C2690-P44.minimised.mol

>  <scratch_subdir>  (577) 
/opt/xchem-fragalysis-2/maxwin/BulkDock/SCRATCH/505736/C2690-P44

>  <fragmenstein_runtime>  (577) 
13.380488872528076

>  <fragmenstein_outcome>  (577) 
too moved

>  <fragmenstein_mode>  (577) 
expansion

>  <fragmenstein_error>  (577) 


$$$$
C2691-P180
     RDKit          3D

 52 57  0  0  0  0  0  0  0  0999 V2000
    1.5146    0.1700   33.8904 O   0  0  0  0  0  0  0  0  0  0  0  0
    2.0750   -0.6643   32.8468 S   0  0  0  0  0  0  0  0  0  0  0  0
    3.4749   -1.0358   32.8540 O   0  0  0  0  0  0  0  0  0  0  0  0
    1.6160    0.0050   31.1800 C   0  0  0  0  0  0  0  0  0  0  0  0
    2.0591    1.3954   30.5872 C   0  0  0  0  0  0  0  0  0  0  0  0
    1.0942    2.3598   30.2140 C   0  0  0  0  0  0  0  0  0  0  0  0
    1.3734    3.4718   29.3865 C   0  0  0  0  0  0  0  0  0  0  0  0
    2.6485    3.6747   28.8859 C   0  0  0  0  0  0  0  0  0  0  0  0
    3.6401    2.7658   29.2367 C   0  0  0  0  0  0  0  0  0  0  0  0
    3.3516    1.6479   30.0702 C   0  0  0  0  0  0  0  0  0  0  0  0
    0.0930   -0.2644   31.3084 C   0  0  0  0  0  0  0  0  0  0  0  0
   -0.1886   -1.6950   31.8687 C   0  0  0  0  0  0  0  0  0  0  0  0
    0.9917   -2.2779   32.7271 C   0  0  0  0  0  0  0  0  0  0  0  0
    0.4891   -3.0138   34.0369 C   0  0  0  0  0  0  0  0  0  0  0  0
    0.0325   -4.4860   33.7832 C   0  0  0  0  0  0  0  0  0  0  0  0
   -0.8334   -5.2520   34.4214 N   0  0  0  0  0  0  0  0  0  0  0  0
   -0.9439   -6.4650   33.7532 N   0  0  0  0  0  0  0  0  0  0  0  0
   -0.1283   -6.4293   32.7314 C   0  0  0  0  0  0  0  0  0  0  0  0
    0.5007   -5.2267   32.7233 N   0  0  0  0  0  0  0  0  0  0  0  0
    1.0787   -4.5480   31.5976 C   0  0  0  0  0  0  0  0  0  0  0  0
    1.9744   -5.5456   30.3966 S   0  0  0  0  0  0  0  0  0  0  0  0
    1.7388   -4.4065   29.1133 C   0  0  0  0  0  0  0  0  0  0  0  0
    2.5808   -3.4579   28.7941 N   0  0  0  0  0  0  0  0  0  0  0  0
    1.7832   -2.4254   28.3618 C   0  0  0  0  0  0  0  0  0  0  0  0
    2.1236   -1.1253   27.9693 C   0  0  0  0  0  0  0  0  0  0  0  0
    1.0828   -0.2165   27.7250 C   0  0  0  0  0  0  0  0  0  0  0  0
   -0.2510   -0.6067   27.8394 C   0  0  0  0  0  0  0  0  0  0  0  0
   -1.2197    0.2894   27.6216 F   0  0  0  0  0  0  0  0  0  0  0  0
   -0.6137   -1.9032   28.1860 C   0  0  0  0  0  0  0  0  0  0  0  0
    0.4385   -2.7812   28.4255 C   0  0  0  0  0  0  0  0  0  0  0  0
    0.4649   -4.1145   28.7155 N   0  0  0  0  0  0  0  0  0  0  0  0
    1.8862   -3.3210   32.0167 C   0  0  0  0  0  0  0  0  0  0  0  0
    2.0456   -0.7348   30.5059 H   0  0  0  0  0  0  0  0  0  0  0  0
    0.0569    2.2433   30.5192 H   0  0  0  0  0  0  0  0  0  0  0  0
    0.5703    4.1634   29.1347 H   0  0  0  0  0  0  0  0  0  0  0  0
    2.8676    4.5240   28.2470 H   0  0  0  0  0  0  0  0  0  0  0  0
    4.6524    2.8983   28.8612 H   0  0  0  0  0  0  0  0  0  0  0  0
    4.1533    0.9365   30.2713 H   0  0  0  0  0  0  0  0  0  0  0  0
   -0.3455    0.4596   32.0099 H   0  0  0  0  0  0  0  0  0  0  0  0
   -0.4452   -0.1146   30.3737 H   0  0  0  0  0  0  0  0  0  0  0  0
   -0.4493   -2.3458   31.0372 H   0  0  0  0  0  0  0  0  0  0  0  0
   -1.0984   -1.6322   32.4787 H   0  0  0  0  0  0  0  0  0  0  0  0
   -0.3337   -2.4580   34.4992 H   0  0  0  0  0  0  0  0  0  0  0  0
    1.3080   -3.0458   34.7659 H   0  0  0  0  0  0  0  0  0  0  0  0
   -0.0045   -7.2068   31.9910 H   0  0  0  0  0  0  0  0  0  0  0  0
    0.1708   -4.2250   31.0856 H   0  0  0  0  0  0  0  0  0  0  0  0
    3.1614   -0.8173   27.8975 H   0  0  0  0  0  0  0  0  0  0  0  0
    1.3119    0.8091   27.4464 H   0  0  0  0  0  0  0  0  0  0  0  0
   -1.6562   -2.1969   28.2138 H   0  0  0  0  0  0  0  0  0  0  0  0
   -0.3454   -4.7130   28.7972 H   0  0  0  0  0  0  0  0  0  0  0  0
    2.7041   -3.6218   32.6876 H   0  0  0  0  0  0  0  0  0  0  0  0
    2.3719   -2.8406   31.1675 H   0  0  0  0  0  0  0  0  0  0  0  0
  1  2  2  0
  2  3  2  0
  2  4  1  0
  4  5  1  0
  5  6  2  0
  6  7  1  0
  7  8  2  0
  8  9  1  0
  9 10  2  0
  4 11  1  0
 11 12  1  0
 12 13  1  0
 13 14  1  0
 14 15  1  0
 15 16  2  0
 16 17  1  0
 17 18  2  0
 18 19  1  0
 19 20  1  0
 20 21  1  0
 21 22  1  0
 22 23  2  0
 23 24  1  0
 24 25  2  0
 25 26  1  0
 26 27  2  0
 27 28  1  0
 27 29  1  0
 29 30  2  0
 30 31  1  0
 20 32  1  0
 13  2  1  0
 19 15  1  0
 31 22  1  0
 10  5  1  0
 32 13  1  0
 30 24  1  0
  4 33  1  0
  6 34  1  0
  7 35  1  0
  8 36  1  0
  9 37  1  0
 10 38  1  0
 11 39  1  0
 11 40  1  0
 12 41  1  0
 12 42  1  0
 14 43  1  0
 14 44  1  0
 18 45  1  0
 20 46  1  0
 25 47  1  0
 26 48  1  0
 29 49  1  0
 31 50  1  0
 32 51  1  0
 32 52  1  0
M  END
>  <Energy>  (578) 
87.794135856362644

>  <compound_id>  (578) 
2691

>  <target_id>  (578) 
1

>  <reference_id>  (578) 
180

>  <inspiration_ids>  (578) 
[180, 53]

>  <energy_score>  (578) 
-2.225818312550558

>  <distance_score>  (578) 
3.05543975425458

>  <path>  (578) 
/opt/xchem-fragalysis-2/maxwin/BulkDock/SCRATCH/505736/C2691-P180/C2691-P180.minimised.mol

>  <scratch_subdir>  (578) 
/opt/xchem-fragalysis-2/maxwin/BulkDock/SCRATCH/505736/C2691-P180

>  <fragmenstein_runtime>  (578) 
4.595287799835205

>  <fragmenstein_outcome>  (578) 
too moved

>  <fragmenstein_mode>  (578) 
expansion

>  <fragmenstein_error>  (578) 


$$$$
C2691-P53
     RDKit          3D

 52 57  0  0  0  0  0  0  0  0999 V2000
    0.2615    1.1378   32.9125 O   0  0  0  0  0  0  0  0  0  0  0  0
    1.5053    0.3927   32.9466 S   0  0  0  0  0  0  0  0  0  0  0  0
    2.3248    0.3795   34.1428 O   0  0  0  0  0  0  0  0  0  0  0  0
    2.6117    0.8348   31.4338 C   0  0  0  0  0  0  0  0  0  0  0  0
    2.3441    2.0671   30.5115 C   0  0  0  0  0  0  0  0  0  0  0  0
    1.0837    2.4382   30.0356 C   0  0  0  0  0  0  0  0  0  0  0  0
    0.9184    3.4388   29.0499 C   0  0  0  0  0  0  0  0  0  0  0  0
    2.0112    4.0948   28.4889 C   0  0  0  0  0  0  0  0  0  0  0  0
    3.2830    3.7475   28.9182 C   0  0  0  0  0  0  0  0  0  0  0  0
    3.4437    2.7483   29.9059 C   0  0  0  0  0  0  0  0  0  0  0  0
    2.4849   -0.4659   30.6448 C   0  0  0  0  0  0  0  0  0  0  0  0
    1.1467   -1.1342   31.0194 C   0  0  0  0  0  0  0  0  0  0  0  0
    1.0885   -1.4203   32.5418 C   0  0  0  0  0  0  0  0  0  0  0  0
   -0.3402   -1.9652   33.0004 C   0  0  0  0  0  0  0  0  0  0  0  0
   -0.5412   -3.4910   32.8005 C   0  0  0  0  0  0  0  0  0  0  0  0
   -1.5243   -4.1793   32.2474 N   0  0  0  0  0  0  0  0  0  0  0  0
   -1.1648   -5.5203   32.2067 N   0  0  0  0  0  0  0  0  0  0  0  0
    0.0281   -5.6245   32.7348 C   0  0  0  0  0  0  0  0  0  0  0  0
    0.5166   -4.3669   32.9419 N   0  0  0  0  0  0  0  0  0  0  0  0
    1.7850   -3.8412   32.4649 C   0  0  0  0  0  0  0  0  0  0  0  0
    2.9097   -5.0038   31.6828 S   0  0  0  0  0  0  0  0  0  0  0  0
    2.4110   -4.7221   30.0065 C   0  0  0  0  0  0  0  0  0  0  0  0
    3.0831   -3.9380   29.1974 N   0  0  0  0  0  0  0  0  0  0  0  0
    2.1135   -3.2170   28.5391 C   0  0  0  0  0  0  0  0  0  0  0  0
    2.2410   -2.0194   27.8207 C   0  0  0  0  0  0  0  0  0  0  0  0
    1.0842   -1.2456   27.6128 C   0  0  0  0  0  0  0  0  0  0  0  0
   -0.1717   -1.7184   27.9849 C   0  0  0  0  0  0  0  0  0  0  0  0
   -1.2354   -0.9152   27.8390 F   0  0  0  0  0  0  0  0  0  0  0  0
   -0.3336   -2.9802   28.5647 C   0  0  0  0  0  0  0  0  0  0  0  0
    0.8407   -3.6911   28.8539 C   0  0  0  0  0  0  0  0  0  0  0  0
    1.0844   -4.8119   29.6272 N   0  0  0  0  0  0  0  0  0  0  0  0
    2.1674   -2.4671   33.0583 C   0  0  0  0  0  0  0  0  0  0  0  0
    3.6196    0.9265   31.8571 H   0  0  0  0  0  0  0  0  0  0  0  0
    0.1849    1.9506   30.4073 H   0  0  0  0  0  0  0  0  0  0  0  0
   -0.0898    3.7020   28.7281 H   0  0  0  0  0  0  0  0  0  0  0  0
    1.8639    4.8623   27.7354 H   0  0  0  0  0  0  0  0  0  0  0  0
    4.1561    4.2368   28.4952 H   0  0  0  0  0  0  0  0  0  0  0  0
    4.4600    2.4819   30.1962 H   0  0  0  0  0  0  0  0  0  0  0  0
    2.5549   -0.2524   29.5805 H   0  0  0  0  0  0  0  0  0  0  0  0
    3.3205   -1.1334   30.8785 H   0  0  0  0  0  0  0  0  0  0  0  0
    1.0024   -2.0316   30.4725 H   0  0  0  0  0  0  0  0  0  0  0  0
    0.3145   -0.4828   30.7198 H   0  0  0  0  0  0  0  0  0  0  0  0
   -1.1342   -1.4325   32.4649 H   0  0  0  0  0  0  0  0  0  0  0  0
   -0.4694   -1.7523   34.0684 H   0  0  0  0  0  0  0  0  0  0  0  0
    0.5918   -6.5366   32.8774 H   0  0  0  0  0  0  0  0  0  0  0  0
    1.4208   -3.4688   31.5297 H   0  0  0  0  0  0  0  0  0  0  0  0
    3.2202   -1.6264   27.5670 H   0  0  0  0  0  0  0  0  0  0  0  0
    1.1616   -0.2592   27.1634 H   0  0  0  0  0  0  0  0  0  0  0  0
   -1.3130   -3.3144   28.8809 H   0  0  0  0  0  0  0  0  0  0  0  0
    0.3589   -5.3052   30.1285 H   0  0  0  0  0  0  0  0  0  0  0  0
    2.1524   -2.5014   34.1542 H   0  0  0  0  0  0  0  0  0  0  0  0
    3.1772   -2.1712   32.7607 H   0  0  0  0  0  0  0  0  0  0  0  0
  1  2  2  0
  2  3  2  0
  2  4  1  0
  4  5  1  0
  5  6  2  0
  6  7  1  0
  7  8  2  0
  8  9  1  0
  9 10  2  0
  4 11  1  0
 11 12  1  0
 12 13  1  0
 13 14  1  0
 14 15  1  0
 15 16  2  0
 16 17  1  0
 17 18  2  0
 18 19  1  0
 19 20  1  0
 20 21  1  0
 21 22  1  0
 22 23  2  0
 23 24  1  0
 24 25  2  0
 25 26  1  0
 26 27  2  0
 27 28  1  0
 27 29  1  0
 29 30  2  0
 30 31  1  0
 20 32  1  0
 13  2  1  0
 19 15  1  0
 31 22  1  0
 10  5  1  0
 32 13  1  0
 30 24  1  0
  4 33  1  0
  6 34  1  0
  7 35  1  0
  8 36  1  0
  9 37  1  0
 10 38  1  0
 11 39  1  0
 11 40  1  0
 12 41  1  0
 12 42  1  0
 14 43  1  0
 14 44  1  0
 18 45  1  0
 20 46  1  0
 25 47  1  0
 26 48  1  0
 29 49  1  0
 31 50  1  0
 32 51  1  0
 32 52  1  0
M  END
>  <Energy>  (579) 
117.27241774931952

>  <compound_id>  (579) 
2691

>  <target_id>  (579) 
1

>  <reference_id>  (579) 
53

>  <inspiration_ids>  (579) 
[180, 53]

>  <energy_score>  (579) 
27.252463580405333

>  <distance_score>  (579) 
3.021711261782757

>  <path>  (579) 
/opt/xchem-fragalysis-2/maxwin/BulkDock/SCRATCH/505736/C2691-P53/C2691-P53.minimised.mol

>  <scratch_subdir>  (579) 
/opt/xchem-fragalysis-2/maxwin/BulkDock/SCRATCH/505736/C2691-P53

>  <fragmenstein_runtime>  (579) 
3.7151246070861816

>  <fragmenstein_outcome>  (579) 
too moved

>  <fragmenstein_mode>  (579) 
expansion

>  <fragmenstein_error>  (579) 


$$$$
C2691-P180
     RDKit          3D

 52 57  0  0  0  0  0  0  0  0999 V2000
    2.2513   -6.5447   36.0626 O   0  0  0  0  0  0  0  0  0  0  0  0
    0.9047   -6.5931   36.5952 S   0  0  0  0  0  0  0  0  0  0  0  0
    0.4169   -7.8195   37.1895 O   0  0  0  0  0  0  0  0  0  0  0  0
    0.5073   -5.2316   37.7575 C   0  0  0  0  0  0  0  0  0  0  0  0
    1.3087   -4.0120   37.3862 C   0  0  0  0  0  0  0  0  0  0  0  0
    0.7328   -2.8805   36.7965 C   0  0  0  0  0  0  0  0  0  0  0  0
    1.5339   -1.8914   36.2411 C   0  0  0  0  0  0  0  0  0  0  0  0
    2.9169   -1.9783   36.3354 C   0  0  0  0  0  0  0  0  0  0  0  0
    3.4997   -3.0289   37.0294 C   0  0  0  0  0  0  0  0  0  0  0  0
    2.6992   -4.0314   37.5657 C   0  0  0  0  0  0  0  0  0  0  0  0
   -0.9995   -5.1367   37.5395 C   0  0  0  0  0  0  0  0  0  0  0  0
   -1.3003   -5.2383   36.0290 C   0  0  0  0  0  0  0  0  0  0  0  0
   -0.2593   -6.1073   35.2646 C   0  0  0  0  0  0  0  0  0  0  0  0
   -0.9159   -7.3843   34.6566 C   0  0  0  0  0  0  0  0  0  0  0  0
   -0.9014   -7.4215   33.1632 C   0  0  0  0  0  0  0  0  0  0  0  0
   -1.7389   -7.9857   32.3241 N   0  0  0  0  0  0  0  0  0  0  0  0
   -1.2147   -7.8693   31.0558 N   0  0  0  0  0  0  0  0  0  0  0  0
   -0.0589   -7.2534   31.1572 C   0  0  0  0  0  0  0  0  0  0  0  0
    0.1381   -6.8971   32.4468 N   0  0  0  0  0  0  0  0  0  0  0  0
    1.1782   -6.1410   33.1200 C   0  0  0  0  0  0  0  0  0  0  0  0
    2.4037   -5.3315   32.0959 S   0  0  0  0  0  0  0  0  0  0  0  0
    1.7187   -4.1220   31.0902 C   0  0  0  0  0  0  0  0  0  0  0  0
    2.4738   -3.2453   30.4723 N   0  0  0  0  0  0  0  0  0  0  0  0
    1.6200   -2.4750   29.7331 C   0  0  0  0  0  0  0  0  0  0  0  0
    1.8958   -1.3717   28.9118 C   0  0  0  0  0  0  0  0  0  0  0  0
    0.8266   -0.7276   28.2814 C   0  0  0  0  0  0  0  0  0  0  0  0
   -0.4728   -1.1992   28.4436 C   0  0  0  0  0  0  0  0  0  0  0  0
   -1.4746   -0.5440   27.8434 F   0  0  0  0  0  0  0  0  0  0  0  0
   -0.7663   -2.3185   29.2274 C   0  0  0  0  0  0  0  0  0  0  0  0
    0.3099   -2.9195   29.8809 C   0  0  0  0  0  0  0  0  0  0  0  0
    0.4037   -3.9811   30.7516 N   0  0  0  0  0  0  0  0  0  0  0  0
    0.5068   -5.2515   34.1825 C   0  0  0  0  0  0  0  0  0  0  0  0
    0.7446   -5.5606   38.7740 H   0  0  0  0  0  0  0  0  0  0  0  0
   -0.3402   -2.7410   36.7164 H   0  0  0  0  0  0  0  0  0  0  0  0
    1.0821   -1.0358   35.7443 H   0  0  0  0  0  0  0  0  0  0  0  0
    3.5424   -1.2016   35.9017 H   0  0  0  0  0  0  0  0  0  0  0  0
    4.5808   -3.0809   37.1338 H   0  0  0  0  0  0  0  0  0  0  0  0
    3.1852   -4.8714   38.0618 H   0  0  0  0  0  0  0  0  0  0  0  0
   -1.4494   -4.2423   37.9828 H   0  0  0  0  0  0  0  0  0  0  0  0
   -1.4647   -5.9888   38.0441 H   0  0  0  0  0  0  0  0  0  0  0  0
   -2.2899   -5.6746   35.9401 H   0  0  0  0  0  0  0  0  0  0  0  0
   -1.3803   -4.2434   35.5823 H   0  0  0  0  0  0  0  0  0  0  0  0
   -0.3688   -8.2756   34.9740 H   0  0  0  0  0  0  0  0  0  0  0  0
   -1.9425   -7.5254   35.0092 H   0  0  0  0  0  0  0  0  0  0  0  0
    0.6221   -7.0548   30.3412 H   0  0  0  0  0  0  0  0  0  0  0  0
    1.7596   -6.9117   33.6377 H   0  0  0  0  0  0  0  0  0  0  0  0
    2.9138   -1.0184   28.7903 H   0  0  0  0  0  0  0  0  0  0  0  0
    1.0001    0.1425   27.6561 H   0  0  0  0  0  0  0  0  0  0  0  0
   -1.7822   -2.6803   29.3090 H   0  0  0  0  0  0  0  0  0  0  0  0
   -0.3729   -4.5443   31.0582 H   0  0  0  0  0  0  0  0  0  0  0  0
   -0.2113   -4.5851   33.6844 H   0  0  0  0  0  0  0  0  0  0  0  0
    1.2548   -4.6088   34.6528 H   0  0  0  0  0  0  0  0  0  0  0  0
  1  2  2  0
  2  3  2  0
  2  4  1  0
  4  5  1  0
  5  6  2  0
  6  7  1  0
  7  8  2  0
  8  9  1  0
  9 10  2  0
  4 11  1  0
 11 12  1  0
 12 13  1  0
 13 14  1  0
 14 15  1  0
 15 16  2  0
 16 17  1  0
 17 18  2  0
 18 19  1  0
 19 20  1  0
 20 21  1  0
 21 22  1  0
 22 23  2  0
 23 24  1  0
 24 25  2  0
 25 26  1  0
 26 27  2  0
 27 28  1  0
 27 29  1  0
 29 30  2  0
 30 31  1  0
 20 32  1  0
 13  2  1  0
 19 15  1  0
 31 22  1  0
 10  5  1  0
 32 13  1  0
 30 24  1  0
  4 33  1  0
  6 34  1  0
  7 35  1  0
  8 36  1  0
  9 37  1  0
 10 38  1  0
 11 39  1  0
 11 40  1  0
 12 41  1  0
 12 42  1  0
 14 43  1  0
 14 44  1  0
 18 45  1  0
 20 46  1  0
 25 47  1  0
 26 48  1  0
 29 49  1  0
 31 50  1  0
 32 51  1  0
 32 52  1  0
M  END
>  <Energy>  (580) 
49.470963524023787

>  <compound_id>  (580) 
2691

>  <target_id>  (580) 
1

>  <reference_id>  (580) 
180

>  <inspiration_ids>  (580) 
[180, 56]

>  <energy_score>  (580) 
-42.01337400173817

>  <distance_score>  (580) 
1.4815065387355066

>  <path>  (580) 
/opt/xchem-fragalysis-2/maxwin/BulkDock/SCRATCH/505736/C2691-P180/C2691-P180.minimised.mol

>  <scratch_subdir>  (580) 
/opt/xchem-fragalysis-2/maxwin/BulkDock/SCRATCH/505736/C2691-P180

>  <fragmenstein_runtime>  (580) 
4.225147724151611

>  <fragmenstein_outcome>  (580) 
too moved

>  <fragmenstein_mode>  (580) 
expansion

>  <fragmenstein_error>  (580) 


$$$$
C2691-P56
     RDKit          3D

 52 57  0  0  0  0  0  0  0  0999 V2000
    1.8008   -5.6444   36.1602 O   0  0  0  0  0  0  0  0  0  0  0  0
    0.5073   -5.2488   36.6654 S   0  0  0  0  0  0  0  0  0  0  0  0
   -0.3138   -6.1241   37.4851 O   0  0  0  0  0  0  0  0  0  0  0  0
    0.4229   -3.6364   37.4668 C   0  0  0  0  0  0  0  0  0  0  0  0
    1.5301   -2.7750   36.9707 C   0  0  0  0  0  0  0  0  0  0  0  0
    1.3954   -1.9676   35.8397 C   0  0  0  0  0  0  0  0  0  0  0  0
    2.5164   -1.4191   35.2393 C   0  0  0  0  0  0  0  0  0  0  0  0
    3.7676   -1.6024   35.8103 C   0  0  0  0  0  0  0  0  0  0  0  0
    3.8920   -2.2875   37.0107 C   0  0  0  0  0  0  0  0  0  0  0  0
    2.7724   -2.8576   37.5987 C   0  0  0  0  0  0  0  0  0  0  0  0
   -0.9605   -3.1693   37.0875 C   0  0  0  0  0  0  0  0  0  0  0  0
   -1.3678   -3.8425   35.7623 C   0  0  0  0  0  0  0  0  0  0  0  0
   -0.4438   -4.9660   35.1996 C   0  0  0  0  0  0  0  0  0  0  0  0
   -1.1180   -6.3639   34.8804 C   0  0  0  0  0  0  0  0  0  0  0  0
   -1.1214   -6.7607   33.4461 C   0  0  0  0  0  0  0  0  0  0  0  0
   -1.9630   -7.5177   32.7787 N   0  0  0  0  0  0  0  0  0  0  0  0
   -1.4812   -7.6526   31.4946 N   0  0  0  0  0  0  0  0  0  0  0  0
   -0.3263   -7.0258   31.4379 C   0  0  0  0  0  0  0  0  0  0  0  0
   -0.0749   -6.4406   32.6314 N   0  0  0  0  0  0  0  0  0  0  0  0
    1.0173   -5.6254   33.1355 C   0  0  0  0  0  0  0  0  0  0  0  0
    2.2752   -5.1366   31.9341 S   0  0  0  0  0  0  0  0  0  0  0  0
    1.6338   -3.9484   30.8836 C   0  0  0  0  0  0  0  0  0  0  0  0
    2.3959   -3.1090   30.2282 N   0  0  0  0  0  0  0  0  0  0  0  0
    1.5374   -2.3248   29.5098 C   0  0  0  0  0  0  0  0  0  0  0  0
    1.8162   -1.2397   28.6687 C   0  0  0  0  0  0  0  0  0  0  0  0
    0.7424   -0.5567   28.0900 C   0  0  0  0  0  0  0  0  0  0  0  0
   -0.5660   -0.9738   28.3195 C   0  0  0  0  0  0  0  0  0  0  0  0
   -1.5713   -0.2916   27.7536 F   0  0  0  0  0  0  0  0  0  0  0  0
   -0.8684   -2.0760   29.1222 C   0  0  0  0  0  0  0  0  0  0  0  0
    0.2176   -2.7202   29.7156 C   0  0  0  0  0  0  0  0  0  0  0  0
    0.3169   -3.7950   30.5646 N   0  0  0  0  0  0  0  0  0  0  0  0
    0.4269   -4.4768   33.9842 C   0  0  0  0  0  0  0  0  0  0  0  0
    0.4970   -3.7837   38.5498 H   0  0  0  0  0  0  0  0  0  0  0  0
    0.4442   -1.8016   35.3448 H   0  0  0  0  0  0  0  0  0  0  0  0
    2.4246   -0.8479   34.3185 H   0  0  0  0  0  0  0  0  0  0  0  0
    4.6497   -1.1836   35.3325 H   0  0  0  0  0  0  0  0  0  0  0  0
    4.8695   -2.4133   37.4671 H   0  0  0  0  0  0  0  0  0  0  0  0
    2.8957   -3.4382   38.5091 H   0  0  0  0  0  0  0  0  0  0  0  0
   -1.0723   -2.0801   37.0471 H   0  0  0  0  0  0  0  0  0  0  0  0
   -1.6633   -3.4959   37.8676 H   0  0  0  0  0  0  0  0  0  0  0  0
   -2.2608   -4.3564   36.0787 H   0  0  0  0  0  0  0  0  0  0  0  0
   -1.6081   -3.0790   35.0164 H   0  0  0  0  0  0  0  0  0  0  0  0
   -0.5562   -7.1804   35.3579 H   0  0  0  0  0  0  0  0  0  0  0  0
   -2.1156   -6.4409   35.3083 H   0  0  0  0  0  0  0  0  0  0  0  0
    0.3201   -6.9783   30.5747 H   0  0  0  0  0  0  0  0  0  0  0  0
    1.5436   -6.2785   33.8315 H   0  0  0  0  0  0  0  0  0  0  0  0
    2.8410   -0.9349   28.4845 H   0  0  0  0  0  0  0  0  0  0  0  0
    0.9274    0.2982   27.4479 H   0  0  0  0  0  0  0  0  0  0  0  0
   -1.8944   -2.3917   29.2603 H   0  0  0  0  0  0  0  0  0  0  0  0
   -0.4546   -4.3524   30.8925 H   0  0  0  0  0  0  0  0  0  0  0  0
   -0.2044   -3.8461   33.3455 H   0  0  0  0  0  0  0  0  0  0  0  0
    1.2589   -3.8645   34.3213 H   0  0  0  0  0  0  0  0  0  0  0  0
  1  2  2  0
  2  3  2  0
  2  4  1  0
  4  5  1  0
  5  6  2  0
  6  7  1  0
  7  8  2  0
  8  9  1  0
  9 10  2  0
  4 11  1  0
 11 12  1  0
 12 13  1  0
 13 14  1  0
 14 15  1  0
 15 16  2  0
 16 17  1  0
 17 18  2  0
 18 19  1  0
 19 20  1  0
 20 21  1  0
 21 22  1  0
 22 23  2  0
 23 24  1  0
 24 25  2  0
 25 26  1  0
 26 27  2  0
 27 28  1  0
 27 29  1  0
 29 30  2  0
 30 31  1  0
 20 32  1  0
 13  2  1  0
 19 15  1  0
 31 22  1  0
 10  5  1  0
 32 13  1  0
 30 24  1  0
  4 33  1  0
  6 34  1  0
  7 35  1  0
  8 36  1  0
  9 37  1  0
 10 38  1  0
 11 39  1  0
 11 40  1  0
 12 41  1  0
 12 42  1  0
 14 43  1  0
 14 44  1  0
 18 45  1  0
 20 46  1  0
 25 47  1  0
 26 48  1  0
 29 49  1  0
 31 50  1  0
 32 51  1  0
 32 52  1  0
M  END
>  <Energy>  (581) 
61.421237610102985

>  <compound_id>  (581) 
2691

>  <target_id>  (581) 
1

>  <reference_id>  (581) 
56

>  <inspiration_ids>  (581) 
[180, 56]

>  <energy_score>  (581) 
-30.063099915658825

>  <distance_score>  (581) 
1.8425754105367098

>  <path>  (581) 
/opt/xchem-fragalysis-2/maxwin/BulkDock/SCRATCH/505736/C2691-P56/C2691-P56.minimised.mol

>  <scratch_subdir>  (581) 
/opt/xchem-fragalysis-2/maxwin/BulkDock/SCRATCH/505736/C2691-P56

>  <fragmenstein_runtime>  (581) 
4.10810112953186

>  <fragmenstein_outcome>  (581) 
too moved

>  <fragmenstein_mode>  (581) 
expansion

>  <fragmenstein_error>  (581) 


$$$$
C2692-P180
     RDKit          3D

 41 46  0  0  0  0  0  0  0  0999 V2000
   -1.2628   -0.6844   27.5620 F   0  0  0  0  0  0  0  0  0  0  0  0
   -0.1621   -1.3469   27.9443 C   0  0  0  0  0  0  0  0  0  0  0  0
    1.0831   -0.7361   27.7875 C   0  0  0  0  0  0  0  0  0  0  0  0
    2.2533   -1.3487   28.2392 C   0  0  0  0  0  0  0  0  0  0  0  0
    2.1350   -2.6004   28.8463 C   0  0  0  0  0  0  0  0  0  0  0  0
    3.0853   -3.3353   29.5056 N   0  0  0  0  0  0  0  0  0  0  0  0
    2.4090   -4.3151   30.0460 C   0  0  0  0  0  0  0  0  0  0  0  0
    2.7917   -5.0075   31.5975 S   0  0  0  0  0  0  0  0  0  0  0  0
    1.3415   -4.4151   32.3459 C   0  0  0  0  0  0  0  0  0  0  0  0
    1.0564   -3.0909   32.3524 C   0  0  0  0  0  0  0  0  0  0  0  0
   -0.3436   -2.6260   32.4168 C   0  0  0  0  0  0  0  0  0  0  0  0
   -0.8069   -1.3453   31.7732 C   0  0  0  0  0  0  0  0  0  0  0  0
   -2.0640   -0.9396   31.6042 N   0  0  0  0  0  0  0  0  0  0  0  0
   -2.0896    0.1671   30.7385 N   0  0  0  0  0  0  0  0  0  0  0  0
   -0.8439    0.4682   30.4322 C   0  0  0  0  0  0  0  0  0  0  0  0
   -0.4749    1.5569   29.5356 C   0  0  0  0  0  0  0  0  0  0  0  0
    0.7605    2.1160   29.2407 C   0  0  0  0  0  0  0  0  0  0  0  0
    0.5807    3.1526   28.2908 C   0  0  0  0  0  0  0  0  0  0  0  0
   -0.7656    3.2269   28.0370 C   0  0  0  0  0  0  0  0  0  0  0  0
   -1.3969    2.2639   28.7857 N   0  0  0  0  0  0  0  0  0  0  0  0
    0.0308   -0.4231   31.0849 O   0  0  0  0  0  0  0  0  0  0  0  0
   -1.2658   -3.5311   32.8543 C   0  0  0  0  0  0  0  0  0  0  0  0
   -0.9351   -4.9296   32.9899 C   0  0  0  0  0  0  0  0  0  0  0  0
   -1.6510   -6.0159   33.1970 N   0  0  0  0  0  0  0  0  0  0  0  0
   -0.9121   -7.1198   32.8619 N   0  0  0  0  0  0  0  0  0  0  0  0
    0.2815   -6.6892   32.5517 C   0  0  0  0  0  0  0  0  0  0  0  0
    0.3368   -5.3234   32.6452 N   0  0  0  0  0  0  0  0  0  0  0  0
    1.1540   -4.4298   29.4997 N   0  0  0  0  0  0  0  0  0  0  0  0
    0.8871   -3.2181   28.9146 C   0  0  0  0  0  0  0  0  0  0  0  0
   -0.2966   -2.6166   28.4968 C   0  0  0  0  0  0  0  0  0  0  0  0
    1.1322    0.2380   27.3121 H   0  0  0  0  0  0  0  0  0  0  0  0
    3.2145   -0.8539   28.1597 H   0  0  0  0  0  0  0  0  0  0  0  0
    1.7935   -2.3437   32.0570 H   0  0  0  0  0  0  0  0  0  0  0  0
    1.7028    1.8022   29.6720 H   0  0  0  0  0  0  0  0  0  0  0  0
    1.3442    3.7868   27.8595 H   0  0  0  0  0  0  0  0  0  0  0  0
   -1.3449    3.8863   27.4029 H   0  0  0  0  0  0  0  0  0  0  0  0
   -2.4026    2.1391   28.8171 H   0  0  0  0  0  0  0  0  0  0  0  0
   -2.3109   -3.2468   32.9286 H   0  0  0  0  0  0  0  0  0  0  0  0
    1.1119   -7.3000   32.2492 H   0  0  0  0  0  0  0  0  0  0  0  0
    0.4524   -5.1080   29.7525 H   0  0  0  0  0  0  0  0  0  0  0  0
   -1.2710   -3.0796   28.5856 H   0  0  0  0  0  0  0  0  0  0  0  0
  1  2  1  0
  2  3  2  0
  3  4  1  0
  4  5  2  0
  5  6  1  0
  6  7  2  0
  7  8  1  0
  8  9  1  0
  9 10  2  0
 10 11  1  0
 11 12  1  0
 12 13  2  0
 13 14  1  0
 14 15  2  0
 15 16  1  0
 16 17  2  0
 17 18  1  0
 18 19  2  0
 19 20  1  0
 15 21  1  0
 11 22  2  0
 22 23  1  0
 23 24  2  0
 24 25  1  0
 25 26  2  0
 26 27  1  0
  7 28  1  0
 28 29  1  0
 29 30  2  0
 30  2  1  0
 29  5  1  0
 27  9  1  0
 21 12  1  0
 27 23  1  0
 20 16  1  0
  3 31  1  0
  4 32  1  0
 10 33  1  0
 17 34  1  0
 18 35  1  0
 19 36  1  0
 20 37  1  0
 22 38  1  0
 26 39  1  0
 28 40  1  0
 30 41  1  0
M  END
>  <Energy>  (582) 
66.736674880489574

>  <compound_id>  (582) 
2692

>  <target_id>  (582) 
1

>  <reference_id>  (582) 
180

>  <inspiration_ids>  (582) 
[180, 57]

>  <energy_score>  (582) 
-8.56670861577831

>  <distance_score>  (582) 
2.559086695007089

>  <path>  (582) 
/opt/xchem-fragalysis-2/maxwin/BulkDock/SCRATCH/505736/C2692-P180/C2692-P180.minimised.mol

>  <scratch_subdir>  (582) 
/opt/xchem-fragalysis-2/maxwin/BulkDock/SCRATCH/505736/C2692-P180

>  <fragmenstein_runtime>  (582) 
2.9318482875823975

>  <fragmenstein_outcome>  (582) 
too moved

>  <fragmenstein_mode>  (582) 
expansion

>  <fragmenstein_error>  (582) 


$$$$
C2692-P57
     RDKit          3D

 41 46  0  0  0  0  0  0  0  0999 V2000
   -1.1270   -0.7923   27.4408 F   0  0  0  0  0  0  0  0  0  0  0  0
   -0.0196   -1.4193   27.8634 C   0  0  0  0  0  0  0  0  0  0  0  0
    1.2154   -0.7838   27.7232 C   0  0  0  0  0  0  0  0  0  0  0  0
    2.3834   -1.3611   28.2237 C   0  0  0  0  0  0  0  0  0  0  0  0
    2.2737   -2.5999   28.8595 C   0  0  0  0  0  0  0  0  0  0  0  0
    3.2179   -3.2990   29.5651 N   0  0  0  0  0  0  0  0  0  0  0  0
    2.5458   -4.2801   30.1092 C   0  0  0  0  0  0  0  0  0  0  0  0
    2.8923   -4.9304   31.6871 S   0  0  0  0  0  0  0  0  0  0  0  0
    1.3967   -4.3737   32.3703 C   0  0  0  0  0  0  0  0  0  0  0  0
    1.0723   -3.0583   32.3418 C   0  0  0  0  0  0  0  0  0  0  0  0
   -0.3427   -2.6415   32.3308 C   0  0  0  0  0  0  0  0  0  0  0  0
   -0.8363   -1.4144   31.6178 C   0  0  0  0  0  0  0  0  0  0  0  0
   -2.1021   -1.1293   31.3139 N   0  0  0  0  0  0  0  0  0  0  0  0
   -2.1372   -0.0611   30.4082 N   0  0  0  0  0  0  0  0  0  0  0  0
   -0.8959    0.3445   30.2203 C   0  0  0  0  0  0  0  0  0  0  0  0
   -0.5420    1.4313   29.3161 C   0  0  0  0  0  0  0  0  0  0  0  0
    0.6408    2.1314   29.1355 C   0  0  0  0  0  0  0  0  0  0  0  0
    0.4365    3.1174   28.1372 C   0  0  0  0  0  0  0  0  0  0  0  0
   -0.8694    3.0055   27.7270 C   0  0  0  0  0  0  0  0  0  0  0  0
   -1.4491    1.9737   28.4220 N   0  0  0  0  0  0  0  0  0  0  0  0
   -0.0162   -0.4405   30.9877 O   0  0  0  0  0  0  0  0  0  0  0  0
   -1.2530   -3.5651   32.7461 C   0  0  0  0  0  0  0  0  0  0  0  0
   -0.8905   -4.9491   32.9158 C   0  0  0  0  0  0  0  0  0  0  0  0
   -1.5892   -6.0521   33.0904 N   0  0  0  0  0  0  0  0  0  0  0  0
   -0.8068   -7.1366   32.8055 N   0  0  0  0  0  0  0  0  0  0  0  0
    0.3897   -6.6749   32.5564 C   0  0  0  0  0  0  0  0  0  0  0  0
    0.4059   -5.3081   32.6373 N   0  0  0  0  0  0  0  0  0  0  0  0
    1.3116   -4.4342   29.5279 N   0  0  0  0  0  0  0  0  0  0  0  0
    1.0382   -3.2420   28.9083 C   0  0  0  0  0  0  0  0  0  0  0  0
   -0.1444   -2.6762   28.4465 C   0  0  0  0  0  0  0  0  0  0  0  0
    1.2571    0.1800   27.2256 H   0  0  0  0  0  0  0  0  0  0  0  0
    3.3363   -0.8480   28.1607 H   0  0  0  0  0  0  0  0  0  0  0  0
    1.7977   -2.2934   32.0636 H   0  0  0  0  0  0  0  0  0  0  0  0
    1.5581    1.9566   29.6833 H   0  0  0  0  0  0  0  0  0  0  0  0
    1.1550    3.8417   27.7758 H   0  0  0  0  0  0  0  0  0  0  0  0
   -1.4477    3.5700   27.0064 H   0  0  0  0  0  0  0  0  0  0  0  0
   -2.4133    1.6749   28.3268 H   0  0  0  0  0  0  0  0  0  0  0  0
   -2.3057   -3.3036   32.7605 H   0  0  0  0  0  0  0  0  0  0  0  0
    1.2520   -7.2604   32.3037 H   0  0  0  0  0  0  0  0  0  0  0  0
    0.6163   -5.1218   29.7734 H   0  0  0  0  0  0  0  0  0  0  0  0
   -1.1115   -3.1552   28.5266 H   0  0  0  0  0  0  0  0  0  0  0  0
  1  2  1  0
  2  3  2  0
  3  4  1  0
  4  5  2  0
  5  6  1  0
  6  7  2  0
  7  8  1  0
  8  9  1  0
  9 10  2  0
 10 11  1  0
 11 12  1  0
 12 13  2  0
 13 14  1  0
 14 15  2  0
 15 16  1  0
 16 17  2  0
 17 18  1  0
 18 19  2  0
 19 20  1  0
 15 21  1  0
 11 22  2  0
 22 23  1  0
 23 24  2  0
 24 25  1  0
 25 26  2  0
 26 27  1  0
  7 28  1  0
 28 29  1  0
 29 30  2  0
 30  2  1  0
 29  5  1  0
 27  9  1  0
 21 12  1  0
 27 23  1  0
 20 16  1  0
  3 31  1  0
  4 32  1  0
 10 33  1  0
 17 34  1  0
 18 35  1  0
 19 36  1  0
 20 37  1  0
 22 38  1  0
 26 39  1  0
 28 40  1  0
 30 41  1  0
M  END
>  <Energy>  (583) 
68.22913359524658

>  <compound_id>  (583) 
2692

>  <target_id>  (583) 
1

>  <reference_id>  (583) 
57

>  <inspiration_ids>  (583) 
[180, 57]

>  <energy_score>  (583) 
-7.074249901021346

>  <distance_score>  (583) 
2.5425915978877014

>  <path>  (583) 
/opt/xchem-fragalysis-2/maxwin/BulkDock/SCRATCH/505736/C2692-P57/C2692-P57.minimised.mol

>  <scratch_subdir>  (583) 
/opt/xchem-fragalysis-2/maxwin/BulkDock/SCRATCH/505736/C2692-P57

>  <fragmenstein_runtime>  (583) 
3.6027615070343018

>  <fragmenstein_outcome>  (583) 
too moved

>  <fragmenstein_mode>  (583) 
expansion

>  <fragmenstein_error>  (583) 


$$$$
C2694-P180
     RDKit          3D

 55 60  0  0  0  0  0  0  0  0999 V2000
    2.0750   -7.9391   34.6844 O   0  0  0  0  0  0  0  0  0  0  0  0
    1.2760   -7.3403   35.7439 S   0  0  0  0  0  0  0  0  0  0  0  0
    0.2569   -8.0938   36.4434 O   0  0  0  0  0  0  0  0  0  0  0  0
    2.3517   -6.6495   37.0205 C   0  0  0  0  0  0  0  0  0  0  0  0
    3.5019   -7.6049   37.2673 C   0  0  0  0  0  0  0  0  0  0  0  0
    3.4031   -8.5361   38.3154 C   0  0  0  0  0  0  0  0  0  0  0  0
    4.4428   -9.4292   38.5801 C   0  0  0  0  0  0  0  0  0  0  0  0
    5.5931   -9.4116   37.7970 C   0  0  0  0  0  0  0  0  0  0  0  0
    5.7041   -8.5020   36.7485 C   0  0  0  0  0  0  0  0  0  0  0  0
    4.6675   -7.6037   36.4848 C   0  0  0  0  0  0  0  0  0  0  0  0
    2.7551   -5.2222   36.6831 C   0  0  0  0  0  0  0  0  0  0  0  0
    1.5522   -4.2803   36.6812 C   0  0  0  0  0  0  0  0  0  0  0  0
    0.2421   -4.8773   36.1544 C   0  0  0  0  0  0  0  0  0  0  0  0
    0.4195   -5.9029   35.0147 C   0  0  0  0  0  0  0  0  0  0  0  0
   -0.9762   -6.3672   34.5305 C   0  0  0  0  0  0  0  0  0  0  0  0
   -0.9157   -7.1003   33.2431 C   0  0  0  0  0  0  0  0  0  0  0  0
   -1.7001   -8.0285   32.7521 N   0  0  0  0  0  0  0  0  0  0  0  0
   -1.3154   -8.2751   31.4537 N   0  0  0  0  0  0  0  0  0  0  0  0
   -0.2872   -7.5016   31.1954 C   0  0  0  0  0  0  0  0  0  0  0  0
   -0.0263   -6.7317   32.2801 N   0  0  0  0  0  0  0  0  0  0  0  0
    0.7575   -5.5275   32.4211 C   0  0  0  0  0  0  0  0  0  0  0  0
    2.1357   -5.4154   31.2513 S   0  0  0  0  0  0  0  0  0  0  0  0
    1.6766   -4.0555   30.3131 C   0  0  0  0  0  0  0  0  0  0  0  0
    2.4353   -3.0162   30.0870 N   0  0  0  0  0  0  0  0  0  0  0  0
    1.6352   -2.1474   29.3907 C   0  0  0  0  0  0  0  0  0  0  0  0
    1.9174   -0.8628   28.9076 C   0  0  0  0  0  0  0  0  0  0  0  0
    0.8885   -0.1465   28.2849 C   0  0  0  0  0  0  0  0  0  0  0  0
   -0.3786   -0.7067   28.1434 C   0  0  0  0  0  0  0  0  0  0  0  0
   -1.3465    0.0175   27.5692 F   0  0  0  0  0  0  0  0  0  0  0  0
   -0.6734   -1.9966   28.5794 C   0  0  0  0  0  0  0  0  0  0  0  0
    0.3658   -2.6869   29.1974 C   0  0  0  0  0  0  0  0  0  0  0  0
    0.4527   -3.9483   29.7199 N   0  0  0  0  0  0  0  0  0  0  0  0
    1.2748   -5.2960   33.8521 C   0  0  0  0  0  0  0  0  0  0  0  0
    1.7380   -6.6093   37.9311 H   0  0  0  0  0  0  0  0  0  0  0  0
    2.5048   -8.5885   38.9315 H   0  0  0  0  0  0  0  0  0  0  0  0
    4.3476  -10.1432   39.3949 H   0  0  0  0  0  0  0  0  0  0  0  0
    6.4005  -10.1100   38.0017 H   0  0  0  0  0  0  0  0  0  0  0  0
    6.6004   -8.4935   36.1331 H   0  0  0  0  0  0  0  0  0  0  0  0
    4.7854   -6.9160   35.6512 H   0  0  0  0  0  0  0  0  0  0  0  0
    3.2752   -5.1660   35.7228 H   0  0  0  0  0  0  0  0  0  0  0  0
    3.4774   -4.8520   37.4226 H   0  0  0  0  0  0  0  0  0  0  0  0
    1.3727   -3.9258   37.7045 H   0  0  0  0  0  0  0  0  0  0  0  0
    1.8121   -3.3837   36.1052 H   0  0  0  0  0  0  0  0  0  0  0  0
   -0.4000   -4.0507   35.8235 H   0  0  0  0  0  0  0  0  0  0  0  0
   -0.2903   -5.3484   36.9921 H   0  0  0  0  0  0  0  0  0  0  0  0
   -1.5172   -6.9541   35.2792 H   0  0  0  0  0  0  0  0  0  0  0  0
   -1.5777   -5.4719   34.3489 H   0  0  0  0  0  0  0  0  0  0  0  0
    0.2545   -7.4719   30.2616 H   0  0  0  0  0  0  0  0  0  0  0  0
    0.0398   -4.7217   32.2169 H   0  0  0  0  0  0  0  0  0  0  0  0
    2.9026   -0.4292   29.0384 H   0  0  0  0  0  0  0  0  0  0  0  0
    1.0663    0.8592   27.9159 H   0  0  0  0  0  0  0  0  0  0  0  0
   -1.6578   -2.4185   28.4194 H   0  0  0  0  0  0  0  0  0  0  0  0
   -0.2738   -4.6472   29.6834 H   0  0  0  0  0  0  0  0  0  0  0  0
    1.3432   -4.2064   33.9756 H   0  0  0  0  0  0  0  0  0  0  0  0
    2.3076   -5.6519   33.9236 H   0  0  0  0  0  0  0  0  0  0  0  0
  1  2  2  0
  2  3  2  0
  2  4  1  0
  4  5  1  0
  5  6  2  0
  6  7  1  0
  7  8  2  0
  8  9  1  0
  9 10  2  0
  4 11  1  0
 11 12  1  0
 12 13  1  0
 13 14  1  0
 14 15  1  0
 15 16  1  0
 16 17  2  0
 17 18  1  0
 18 19  2  0
 19 20  1  0
 20 21  1  0
 21 22  1  0
 22 23  1  0
 23 24  2  0
 24 25  1  0
 25 26  2  0
 26 27  1  0
 27 28  2  0
 28 29  1  0
 28 30  1  0
 30 31  2  0
 31 32  1  0
 21 33  1  0
 14  2  1  0
 20 16  1  0
 32 23  1  0
 10  5  1  0
 33 14  1  0
 31 25  1  0
  4 34  1  0
  6 35  1  0
  7 36  1  0
  8 37  1  0
  9 38  1  0
 10 39  1  0
 11 40  1  0
 11 41  1  0
 12 42  1  0
 12 43  1  0
 13 44  1  0
 13 45  1  0
 15 46  1  0
 15 47  1  0
 19 48  1  0
 21 49  1  0
 26 50  1  0
 27 51  1  0
 30 52  1  0
 32 53  1  0
 33 54  1  0
 33 55  1  0
M  END
>  <Energy>  (584) 
45.074573926916692

>  <compound_id>  (584) 
2694

>  <target_id>  (584) 
1

>  <reference_id>  (584) 
180

>  <inspiration_ids>  (584) 
[180, 78]

>  <energy_score>  (584) 
-49.87263824807789

>  <distance_score>  (584) 
0.9654159758719303

>  <path>  (584) 
/opt/xchem-fragalysis-2/maxwin/BulkDock/SCRATCH/505736/C2694-P180/C2694-P180.minimised.mol

>  <scratch_subdir>  (584) 
/opt/xchem-fragalysis-2/maxwin/BulkDock/SCRATCH/505736/C2694-P180

>  <fragmenstein_runtime>  (584) 
3.5574567317962646

>  <fragmenstein_outcome>  (584) 
acceptable

>  <fragmenstein_mode>  (584) 
expansion

>  <fragmenstein_error>  (584) 


$$$$
C2694-P78
     RDKit          3D

 55 60  0  0  0  0  0  0  0  0999 V2000
    2.4002   -7.6542   34.2567 O   0  0  0  0  0  0  0  0  0  0  0  0
    1.6596   -7.5670   35.4994 S   0  0  0  0  0  0  0  0  0  0  0  0
    1.0309   -8.7461   36.0585 O   0  0  0  0  0  0  0  0  0  0  0  0
    2.7362   -6.9276   36.8028 C   0  0  0  0  0  0  0  0  0  0  0  0
    4.0672   -7.6499   36.6956 C   0  0  0  0  0  0  0  0  0  0  0  0
    4.1947   -8.9294   37.2670 C   0  0  0  0  0  0  0  0  0  0  0  0
    5.3872   -9.6466   37.1631 C   0  0  0  0  0  0  0  0  0  0  0  0
    6.4726   -9.0978   36.4875 C   0  0  0  0  0  0  0  0  0  0  0  0
    6.3645   -7.8339   35.9136 C   0  0  0  0  0  0  0  0  0  0  0  0
    5.1710   -7.1145   36.0142 C   0  0  0  0  0  0  0  0  0  0  0  0
    2.7826   -5.4086   36.7682 C   0  0  0  0  0  0  0  0  0  0  0  0
    1.4188   -4.7783   37.0621 C   0  0  0  0  0  0  0  0  0  0  0  0
    0.1943   -5.5844   36.6106 C   0  0  0  0  0  0  0  0  0  0  0  0
    0.3714   -6.2904   35.2482 C   0  0  0  0  0  0  0  0  0  0  0  0
   -0.9529   -6.9753   34.8481 C   0  0  0  0  0  0  0  0  0  0  0  0
   -0.9973   -7.3776   33.4199 C   0  0  0  0  0  0  0  0  0  0  0  0
   -1.8159   -8.2143   32.8250 N   0  0  0  0  0  0  0  0  0  0  0  0
   -1.5211   -8.2384   31.4839 N   0  0  0  0  0  0  0  0  0  0  0  0
   -0.5280   -7.4052   31.2910 C   0  0  0  0  0  0  0  0  0  0  0  0
   -0.2190   -6.7954   32.4660 N   0  0  0  0  0  0  0  0  0  0  0  0
    0.5156   -5.5709   32.6814 C   0  0  0  0  0  0  0  0  0  0  0  0
    2.0037   -5.4316   31.6457 S   0  0  0  0  0  0  0  0  0  0  0  0
    1.6102   -4.1289   30.5874 C   0  0  0  0  0  0  0  0  0  0  0  0
    2.4229   -3.1531   30.2701 N   0  0  0  0  0  0  0  0  0  0  0  0
    1.6689   -2.2993   29.5026 C   0  0  0  0  0  0  0  0  0  0  0  0
    2.0130   -1.0708   28.9204 C   0  0  0  0  0  0  0  0  0  0  0  0
    1.0177   -0.3483   28.2490 C   0  0  0  0  0  0  0  0  0  0  0  0
   -0.2788   -0.8480   28.1565 C   0  0  0  0  0  0  0  0  0  0  0  0
   -1.2194   -0.1088   27.5548 F   0  0  0  0  0  0  0  0  0  0  0  0
   -0.6341   -2.0876   28.6854 C   0  0  0  0  0  0  0  0  0  0  0  0
    0.3733   -2.7851   29.3499 C   0  0  0  0  0  0  0  0  0  0  0  0
    0.3990   -4.0068   29.9675 N   0  0  0  0  0  0  0  0  0  0  0  0
    0.7989   -5.2463   34.1660 C   0  0  0  0  0  0  0  0  0  0  0  0
    2.2698   -7.2220   37.7531 H   0  0  0  0  0  0  0  0  0  0  0  0
    3.3552   -9.3903   37.7870 H   0  0  0  0  0  0  0  0  0  0  0  0
    5.4654  -10.6380   37.6026 H   0  0  0  0  0  0  0  0  0  0  0  0
    7.3999   -9.6582   36.4008 H   0  0  0  0  0  0  0  0  0  0  0  0
    7.2098   -7.4105   35.3762 H   0  0  0  0  0  0  0  0  0  0  0  0
    5.1241   -6.1414   35.5327 H   0  0  0  0  0  0  0  0  0  0  0  0
    3.1639   -5.0461   35.8097 H   0  0  0  0  0  0  0  0  0  0  0  0
    3.4968   -5.0393   37.5160 H   0  0  0  0  0  0  0  0  0  0  0  0
    1.3292   -4.6128   38.1435 H   0  0  0  0  0  0  0  0  0  0  0  0
    1.3922   -3.7788   36.6105 H   0  0  0  0  0  0  0  0  0  0  0  0
   -0.6682   -4.9059   36.5797 H   0  0  0  0  0  0  0  0  0  0  0  0
   -0.0431   -6.3299   37.3818 H   0  0  0  0  0  0  0  0  0  0  0  0
   -1.1791   -7.8360   35.4853 H   0  0  0  0  0  0  0  0  0  0  0  0
   -1.7726   -6.2677   35.0049 H   0  0  0  0  0  0  0  0  0  0  0  0
   -0.0459   -7.2112   30.3451 H   0  0  0  0  0  0  0  0  0  0  0  0
   -0.1907   -4.7977   32.3521 H   0  0  0  0  0  0  0  0  0  0  0  0
    3.0200   -0.6801   29.0165 H   0  0  0  0  0  0  0  0  0  0  0  0
    1.2458    0.6164   27.8059 H   0  0  0  0  0  0  0  0  0  0  0  0
   -1.6431   -2.4634   28.5698 H   0  0  0  0  0  0  0  0  0  0  0  0
   -0.3631   -4.6659   29.9778 H   0  0  0  0  0  0  0  0  0  0  0  0
    1.8454   -4.9600   34.2834 H   0  0  0  0  0  0  0  0  0  0  0  0
    0.2419   -4.3199   34.3757 H   0  0  0  0  0  0  0  0  0  0  0  0
  1  2  2  0
  2  3  2  0
  2  4  1  0
  4  5  1  0
  5  6  2  0
  6  7  1  0
  7  8  2  0
  8  9  1  0
  9 10  2  0
  4 11  1  0
 11 12  1  0
 12 13  1  0
 13 14  1  0
 14 15  1  0
 15 16  1  0
 16 17  2  0
 17 18  1  0
 18 19  2  0
 19 20  1  0
 20 21  1  0
 21 22  1  0
 22 23  1  0
 23 24  2  0
 24 25  1  0
 25 26  2  0
 26 27  1  0
 27 28  2  0
 28 29  1  0
 28 30  1  0
 30 31  2  0
 31 32  1  0
 21 33  1  0
 14  2  1  0
 20 16  1  0
 32 23  1  0
 10  5  1  0
 33 14  1  0
 31 25  1  0
  4 34  1  0
  6 35  1  0
  7 36  1  0
  8 37  1  0
  9 38  1  0
 10 39  1  0
 11 40  1  0
 11 41  1  0
 12 42  1  0
 12 43  1  0
 13 44  1  0
 13 45  1  0
 15 46  1  0
 15 47  1  0
 19 48  1  0
 21 49  1  0
 26 50  1  0
 27 51  1  0
 30 52  1  0
 32 53  1  0
 33 54  1  0
 33 55  1  0
M  END
>  <Energy>  (585) 
44.566015328855947

>  <compound_id>  (585) 
2694

>  <target_id>  (585) 
1

>  <reference_id>  (585) 
78

>  <inspiration_ids>  (585) 
[180, 78]

>  <energy_score>  (585) 
-50.38119684614077

>  <distance_score>  (585) 
0.7882936526225771

>  <path>  (585) 
/opt/xchem-fragalysis-2/maxwin/BulkDock/SCRATCH/505736/C2694-P78/C2694-P78.minimised.mol

>  <scratch_subdir>  (585) 
/opt/xchem-fragalysis-2/maxwin/BulkDock/SCRATCH/505736/C2694-P78

>  <fragmenstein_runtime>  (585) 
3.263624429702759

>  <fragmenstein_outcome>  (585) 
acceptable

>  <fragmenstein_mode>  (585) 
expansion

>  <fragmenstein_error>  (585) 


$$$$
C2696-P180
     RDKit          3D

 64 70  0  0  0  0  0  0  0  0999 V2000
    5.8068    4.5782   29.2890 N   0  0  0  0  0  0  0  0  0  0  0  0
    6.4457    3.3683   28.7842 C   0  0  0  0  0  0  0  0  0  0  0  0
    5.5494    2.1971   28.9013 C   0  0  0  0  0  0  0  0  0  0  0  0
    5.2726    1.4805   27.7605 O   0  0  0  0  0  0  0  0  0  0  0  0
    4.4425    0.4732   28.1833 C   0  0  0  0  0  0  0  0  0  0  0  0
    3.9580   -0.5088   27.1619 C   0  0  0  0  0  0  0  0  0  0  0  0
    3.3552   -1.7375   27.6963 N   0  0  0  0  0  0  0  0  0  0  0  0
    2.0854   -1.7755   28.2708 C   0  0  0  0  0  0  0  0  0  0  0  0
    1.0484   -0.8862   27.9419 C   0  0  0  0  0  0  0  0  0  0  0  0
   -0.2553   -1.0667   28.4075 C   0  0  0  0  0  0  0  0  0  0  0  0
   -1.2046   -0.2002   28.0289 F   0  0  0  0  0  0  0  0  0  0  0  0
   -0.6055   -2.1203   29.2451 C   0  0  0  0  0  0  0  0  0  0  0  0
    0.4344   -2.9559   29.6354 C   0  0  0  0  0  0  0  0  0  0  0  0
    0.4803   -4.0305   30.4897 N   0  0  0  0  0  0  0  0  0  0  0  0
    1.7906   -4.3825   30.6391 C   0  0  0  0  0  0  0  0  0  0  0  0
    2.4218   -5.4380   31.8500 S   0  0  0  0  0  0  0  0  0  0  0  0
    1.0672   -6.0792   32.7043 C   0  0  0  0  0  0  0  0  0  0  0  0
    0.9923   -5.9209   34.0433 C   0  0  0  0  0  0  0  0  0  0  0  0
   -0.0958   -6.5302   34.7925 C   0  0  0  0  0  0  0  0  0  0  0  0
   -1.0277   -7.2815   34.1798 C   0  0  0  0  0  0  0  0  0  0  0  0
   -0.9528   -7.4777   32.7757 C   0  0  0  0  0  0  0  0  0  0  0  0
   -1.7103   -8.1341   31.9254 N   0  0  0  0  0  0  0  0  0  0  0  0
   -1.1406   -8.0363   30.6824 N   0  0  0  0  0  0  0  0  0  0  0  0
   -0.0440   -7.3284   30.8030 C   0  0  0  0  0  0  0  0  0  0  0  0
    0.1061   -6.8944   32.0927 N   0  0  0  0  0  0  0  0  0  0  0  0
    2.5598   -3.7412   29.7896 N   0  0  0  0  0  0  0  0  0  0  0  0
    1.7436   -2.8032   29.1907 C   0  0  0  0  0  0  0  0  0  0  0  0
    4.1968    0.4829   29.4769 N   0  0  0  0  0  0  0  0  0  0  0  0
    4.8900    1.5870   29.9449 C   0  0  0  0  0  0  0  0  0  0  0  0
    4.8648    1.9399   31.3603 C   0  0  0  0  0  0  0  0  0  0  0  0
    5.4747    2.8227   31.8235 O   0  0  0  0  0  0  0  0  0  0  0  0
    3.9329    0.9045   32.0317 N   0  0  0  0  0  0  0  0  0  0  0  0
    3.6475    0.6918   33.3480 C   0  0  0  0  0  0  0  0  0  0  0  0
    4.1384    1.4511   34.3366 C   0  0  0  0  0  0  0  0  0  0  0  0
    3.9163    1.1596   35.6559 N   0  0  0  0  0  0  0  0  0  0  0  0
    3.2654    0.0355   36.1020 C   0  0  0  0  0  0  0  0  0  0  0  0
    3.1750   -0.2320   37.2945 O   0  0  0  0  0  0  0  0  0  0  0  0
    2.6582   -0.8330   35.0565 C   0  0  0  0  0  0  0  0  0  0  0  0
    1.8474   -1.9083   35.4435 C   0  0  0  0  0  0  0  0  0  0  0  0
    1.0278   -2.5208   34.5053 C   0  0  0  0  0  0  0  0  0  0  0  0
    1.0532   -2.0858   33.1882 C   0  0  0  0  0  0  0  0  0  0  0  0
    1.9443   -1.0934   32.7782 C   0  0  0  0  0  0  0  0  0  0  0  0
    2.7660   -0.4452   33.7110 C   0  0  0  0  0  0  0  0  0  0  0  0
    5.6534    4.4667   30.2963 H   0  0  0  0  0  0  0  0  0  0  0  0
    6.4562    5.3580   29.2026 H   0  0  0  0  0  0  0  0  0  0  0  0
    7.3707    3.1815   29.3405 H   0  0  0  0  0  0  0  0  0  0  0  0
    6.7225    3.5261   27.7362 H   0  0  0  0  0  0  0  0  0  0  0  0
    3.2776   -0.0093   26.4644 H   0  0  0  0  0  0  0  0  0  0  0  0
    4.8231   -0.8160   26.5612 H   0  0  0  0  0  0  0  0  0  0  0  0
    4.0013   -2.3403   28.2054 H   0  0  0  0  0  0  0  0  0  0  0  0
    1.2170   -0.0509   27.2729 H   0  0  0  0  0  0  0  0  0  0  0  0
   -1.6263   -2.2524   29.5743 H   0  0  0  0  0  0  0  0  0  0  0  0
   -0.3020   -4.3690   31.0263 H   0  0  0  0  0  0  0  0  0  0  0  0
    1.7378   -5.3676   34.6102 H   0  0  0  0  0  0  0  0  0  0  0  0
   -0.1263   -6.3790   35.8691 H   0  0  0  0  0  0  0  0  0  0  0  0
   -1.8245   -7.7676   34.7327 H   0  0  0  0  0  0  0  0  0  0  0  0
    0.6550   -7.1083   30.0111 H   0  0  0  0  0  0  0  0  0  0  0  0
    3.6285    0.2215   31.3391 H   0  0  0  0  0  0  0  0  0  0  0  0
    4.7660    2.3185   34.1574 H   0  0  0  0  0  0  0  0  0  0  0  0
    4.3283    1.7424   36.3757 H   0  0  0  0  0  0  0  0  0  0  0  0
    1.7715   -2.1820   36.4942 H   0  0  0  0  0  0  0  0  0  0  0  0
    0.3054   -3.2653   34.8271 H   0  0  0  0  0  0  0  0  0  0  0  0
    0.3281   -2.4779   32.4895 H   0  0  0  0  0  0  0  0  0  0  0  0
    1.9096   -0.7855   31.7363 H   0  0  0  0  0  0  0  0  0  0  0  0
  1  2  1  0
  2  3  1  0
  3  4  1  0
  4  5  1  0
  5  6  1  0
  6  7  1  0
  7  8  1  0
  8  9  2  0
  9 10  1  0
 10 11  1  0
 10 12  2  0
 12 13  1  0
 13 14  1  0
 14 15  1  0
 15 16  1  0
 16 17  1  0
 17 18  2  0
 18 19  1  0
 19 20  2  0
 20 21  1  0
 21 22  2  0
 22 23  1  0
 23 24  2  0
 24 25  1  0
 15 26  2  0
 26 27  1  0
  5 28  2  0
 28 29  1  0
 29 30  1  0
 30 31  2  0
 30 32  1  0
 32 33  1  0
 33 34  2  0
 34 35  1  0
 35 36  1  0
 36 37  2  0
 36 38  1  0
 38 39  2  0
 39 40  1  0
 40 41  2  0
 41 42  1  0
 42 43  2  0
 29  3  2  0
 43 33  1  0
 27  8  1  0
 43 38  1  0
 27 13  2  0
 25 17  1  0
 25 21  1  0
  1 44  1  0
  1 45  1  0
  2 46  1  0
  2 47  1  0
  6 48  1  0
  6 49  1  0
  7 50  1  0
  9 51  1  0
 12 52  1  0
 14 53  1  0
 18 54  1  0
 19 55  1  0
 20 56  1  0
 24 57  1  0
 32 58  1  0
 34 59  1  0
 35 60  1  0
 39 61  1  0
 40 62  1  0
 41 63  1  0
 42 64  1  0
M  END
>  <Energy>  (586) 
134.45656584425407

>  <compound_id>  (586) 
2696

>  <target_id>  (586) 
1

>  <reference_id>  (586) 
180

>  <inspiration_ids>  (586) 
[180, 128]

>  <energy_score>  (586) 
-68.01527638975

>  <distance_score>  (586) 
1.1770865611822265

>  <path>  (586) 
/opt/xchem-fragalysis-2/maxwin/BulkDock/SCRATCH/505736/C2696-P180/C2696-P180.minimised.mol

>  <scratch_subdir>  (586) 
/opt/xchem-fragalysis-2/maxwin/BulkDock/SCRATCH/505736/C2696-P180

>  <fragmenstein_runtime>  (586) 
6.312526702880859

>  <fragmenstein_outcome>  (586) 
too moved

>  <fragmenstein_mode>  (586) 
expansion

>  <fragmenstein_error>  (586) 


$$$$
C2696-P128
     RDKit          3D

 64 70  0  0  0  0  0  0  0  0999 V2000
    2.4600    4.9418   28.9325 N   0  0  0  0  0  0  0  0  0  0  0  0
    3.6464    4.3438   28.3321 C   0  0  0  0  0  0  0  0  0  0  0  0
    3.7131    2.8914   28.6040 C   0  0  0  0  0  0  0  0  0  0  0  0
    3.7907    2.0351   27.5264 O   0  0  0  0  0  0  0  0  0  0  0  0
    3.7862    0.7818   28.0849 C   0  0  0  0  0  0  0  0  0  0  0  0
    3.6662   -0.4062   27.1778 C   0  0  0  0  0  0  0  0  0  0  0  0
    3.1057   -1.6290   27.7834 N   0  0  0  0  0  0  0  0  0  0  0  0
    1.8365   -1.6361   28.3765 C   0  0  0  0  0  0  0  0  0  0  0  0
    0.8053   -0.7597   27.9960 C   0  0  0  0  0  0  0  0  0  0  0  0
   -0.4767   -0.8435   28.5356 C   0  0  0  0  0  0  0  0  0  0  0  0
   -1.4162    0.0079   28.1051 F   0  0  0  0  0  0  0  0  0  0  0  0
   -0.8113   -1.7726   29.5125 C   0  0  0  0  0  0  0  0  0  0  0  0
    0.2101   -2.6222   29.9190 C   0  0  0  0  0  0  0  0  0  0  0  0
    0.2521   -3.6105   30.8696 N   0  0  0  0  0  0  0  0  0  0  0  0
    1.5075   -4.1354   30.8604 C   0  0  0  0  0  0  0  0  0  0  0  0
    2.0777   -5.3458   31.9389 S   0  0  0  0  0  0  0  0  0  0  0  0
    0.7044   -5.9476   32.7704 C   0  0  0  0  0  0  0  0  0  0  0  0
    0.5518   -5.7315   34.0934 C   0  0  0  0  0  0  0  0  0  0  0  0
   -0.4873   -6.4396   34.8243 C   0  0  0  0  0  0  0  0  0  0  0  0
   -1.2959   -7.3196   34.2067 C   0  0  0  0  0  0  0  0  0  0  0  0
   -1.1751   -7.5189   32.8059 C   0  0  0  0  0  0  0  0  0  0  0  0
   -1.8422   -8.2505   31.9417 N   0  0  0  0  0  0  0  0  0  0  0  0
   -1.2720   -8.0829   30.7063 N   0  0  0  0  0  0  0  0  0  0  0  0
   -0.2657   -7.2563   30.8437 C   0  0  0  0  0  0  0  0  0  0  0  0
   -0.1695   -6.8374   32.1425 N   0  0  0  0  0  0  0  0  0  0  0  0
    2.2791   -3.5586   29.9667 N   0  0  0  0  0  0  0  0  0  0  0  0
    1.4938   -2.5874   29.3778 C   0  0  0  0  0  0  0  0  0  0  0  0
    3.8031    0.7795   29.3997 N   0  0  0  0  0  0  0  0  0  0  0  0
    3.6726    2.1184   29.7418 C   0  0  0  0  0  0  0  0  0  0  0  0
    3.4579    2.4935   31.1364 C   0  0  0  0  0  0  0  0  0  0  0  0
    3.4397    3.5877   31.5451 O   0  0  0  0  0  0  0  0  0  0  0  0
    3.2613    1.1479   31.8685 N   0  0  0  0  0  0  0  0  0  0  0  0
    3.1045    0.8758   33.1943 C   0  0  0  0  0  0  0  0  0  0  0  0
    2.8231    1.8074   34.1140 C   0  0  0  0  0  0  0  0  0  0  0  0
    2.5400    1.4804   35.4141 N   0  0  0  0  0  0  0  0  0  0  0  0
    2.4798    0.1940   35.8962 C   0  0  0  0  0  0  0  0  0  0  0  0
    2.1539   -0.0517   37.0518 O   0  0  0  0  0  0  0  0  0  0  0  0
    2.8514   -0.8909   34.9419 C   0  0  0  0  0  0  0  0  0  0  0  0
    2.9145   -2.2220   35.3802 C   0  0  0  0  0  0  0  0  0  0  0  0
    3.3983   -3.2069   34.5276 C   0  0  0  0  0  0  0  0  0  0  0  0
    3.8019   -2.8629   33.2439 C   0  0  0  0  0  0  0  0  0  0  0  0
    3.6711   -1.5569   32.7834 C   0  0  0  0  0  0  0  0  0  0  0  0
    3.1967   -0.5425   33.6267 C   0  0  0  0  0  0  0  0  0  0  0  0
    2.5422    4.8838   29.9520 H   0  0  0  0  0  0  0  0  0  0  0  0
    2.4414    5.9370   28.7175 H   0  0  0  0  0  0  0  0  0  0  0  0
    4.5438    4.8336   28.7252 H   0  0  0  0  0  0  0  0  0  0  0  0
    3.6242    4.5227   27.2517 H   0  0  0  0  0  0  0  0  0  0  0  0
    3.0846   -0.1353   26.2909 H   0  0  0  0  0  0  0  0  0  0  0  0
    4.6710   -0.6516   26.8143 H   0  0  0  0  0  0  0  0  0  0  0  0
    3.7625   -2.1816   28.3312 H   0  0  0  0  0  0  0  0  0  0  0  0
    0.9653    0.0020   27.2429 H   0  0  0  0  0  0  0  0  0  0  0  0
   -1.8102   -1.8096   29.9232 H   0  0  0  0  0  0  0  0  0  0  0  0
   -0.5000   -3.8530   31.4958 H   0  0  0  0  0  0  0  0  0  0  0  0
    1.2158   -5.1000   34.6735 H   0  0  0  0  0  0  0  0  0  0  0  0
   -0.5642   -6.2801   35.8969 H   0  0  0  0  0  0  0  0  0  0  0  0
   -2.0327   -7.8997   34.7529 H   0  0  0  0  0  0  0  0  0  0  0  0
    0.3968   -6.9322   30.0567 H   0  0  0  0  0  0  0  0  0  0  0  0
    3.4236    0.3815   31.2193 H   0  0  0  0  0  0  0  0  0  0  0  0
    2.7477    2.8638   33.8753 H   0  0  0  0  0  0  0  0  0  0  0  0
    2.2941    2.2092   36.0741 H   0  0  0  0  0  0  0  0  0  0  0  0
    2.6426   -2.4697   36.4042 H   0  0  0  0  0  0  0  0  0  0  0  0
    3.5174   -4.2261   34.8842 H   0  0  0  0  0  0  0  0  0  0  0  0
    4.2527   -3.6073   32.5917 H   0  0  0  0  0  0  0  0  0  0  0  0
    4.0061   -1.3678   31.7678 H   0  0  0  0  0  0  0  0  0  0  0  0
  1  2  1  0
  2  3  1  0
  3  4  1  0
  4  5  1  0
  5  6  1  0
  6  7  1  0
  7  8  1  0
  8  9  2  0
  9 10  1  0
 10 11  1  0
 10 12  2  0
 12 13  1  0
 13 14  1  0
 14 15  1  0
 15 16  1  0
 16 17  1  0
 17 18  2  0
 18 19  1  0
 19 20  2  0
 20 21  1  0
 21 22  2  0
 22 23  1  0
 23 24  2  0
 24 25  1  0
 15 26  2  0
 26 27  1  0
  5 28  2  0
 28 29  1  0
 29 30  1  0
 30 31  2  0
 30 32  1  0
 32 33  1  0
 33 34  2  0
 34 35  1  0
 35 36  1  0
 36 37  2  0
 36 38  1  0
 38 39  2  0
 39 40  1  0
 40 41  2  0
 41 42  1  0
 42 43  2  0
 29  3  2  0
 43 33  1  0
 27  8  1  0
 43 38  1  0
 27 13  2  0
 25 17  1  0
 25 21  1  0
  1 44  1  0
  1 45  1  0
  2 46  1  0
  2 47  1  0
  6 48  1  0
  6 49  1  0
  7 50  1  0
  9 51  1  0
 12 52  1  0
 14 53  1  0
 18 54  1  0
 19 55  1  0
 20 56  1  0
 24 57  1  0
 32 58  1  0
 34 59  1  0
 35 60  1  0
 39 61  1  0
 40 62  1  0
 41 63  1  0
 42 64  1  0
M  END
>  <Energy>  (587) 
132.34830823236018

>  <compound_id>  (587) 
2696

>  <target_id>  (587) 
1

>  <reference_id>  (587) 
128

>  <inspiration_ids>  (587) 
[180, 128]

>  <energy_score>  (587) 
-70.12353400164511

>  <distance_score>  (587) 
1.2456784814081852

>  <path>  (587) 
/opt/xchem-fragalysis-2/maxwin/BulkDock/SCRATCH/505736/C2696-P128/C2696-P128.minimised.mol

>  <scratch_subdir>  (587) 
/opt/xchem-fragalysis-2/maxwin/BulkDock/SCRATCH/505736/C2696-P128

>  <fragmenstein_runtime>  (587) 
6.10765528678894

>  <fragmenstein_outcome>  (587) 
too moved

>  <fragmenstein_mode>  (587) 
expansion

>  <fragmenstein_error>  (587) 


$$$$
C2350-P180
     RDKit          3D

 46 52  0  0  0  0  0  0  0  0999 V2000
   -0.9493   -0.3160   27.4408 F   0  0  0  0  0  0  0  0  0  0  0  0
   -0.1096   -1.0492   28.1834 C   0  0  0  0  0  0  0  0  0  0  0  0
    1.2185   -0.6461   28.3026 C   0  0  0  0  0  0  0  0  0  0  0  0
    2.1081   -1.3210   29.1479 C   0  0  0  0  0  0  0  0  0  0  0  0
    1.5779   -2.3778   29.8979 C   0  0  0  0  0  0  0  0  0  0  0  0
    0.2574   -2.8150   29.7442 C   0  0  0  0  0  0  0  0  0  0  0  0
   -0.5978   -2.1676   28.8481 C   0  0  0  0  0  0  0  0  0  0  0  0
   -0.0335   -3.8222   30.6259 N   0  0  0  0  0  0  0  0  0  0  0  0
    1.0082   -3.8837   31.4132 C   0  0  0  0  0  0  0  0  0  0  0  0
    2.0595   -3.1374   30.9405 N   0  0  0  0  0  0  0  0  0  0  0  0
    3.3323   -2.9902   31.6392 C   0  0  0  0  0  0  0  0  0  0  0  0
    3.2608   -3.1785   33.0827 N   0  0  0  0  0  0  0  0  0  0  0  0
    3.6104   -2.3365   34.1058 C   0  0  0  0  0  0  0  0  0  0  0  0
    3.7861   -0.9125   33.9780 C   0  0  0  0  0  0  0  0  0  0  0  0
    4.7956   -0.2389   34.6536 C   0  0  0  0  0  0  0  0  0  0  0  0
    4.9245    1.1325   34.4795 C   0  0  0  0  0  0  0  0  0  0  0  0
    4.0276    1.7775   33.6386 C   0  0  0  0  0  0  0  0  0  0  0  0
    3.0169    1.1522   32.9917 N   0  0  0  0  0  0  0  0  0  0  0  0
    2.8971   -0.1659   33.2073 C   0  0  0  0  0  0  0  0  0  0  0  0
    3.5591   -3.0297   35.2292 N   0  0  0  0  0  0  0  0  0  0  0  0
    2.8009   -4.1497   34.9742 N   0  0  0  0  0  0  0  0  0  0  0  0
    2.4566   -4.0798   33.7072 C   0  0  0  0  0  0  0  0  0  0  0  0
    0.9032   -4.3702   33.0536 S   0  0  0  0  0  4  0  0  0  0  0  0
    0.2725   -5.8747   33.4315 C   0  0  0  0  0  0  0  0  0  0  0  0
    0.0652   -6.0261   34.7553 C   0  0  0  0  0  0  0  0  0  0  0  0
   -0.8451   -7.0418   35.2191 C   0  0  0  0  0  0  0  0  0  0  0  0
   -1.5185   -7.7995   34.3411 C   0  0  0  0  0  0  0  0  0  0  0  0
   -1.2205   -7.7293   32.9523 C   0  0  0  0  0  0  0  0  0  0  0  0
   -1.6475   -8.4096   31.9105 N   0  0  0  0  0  0  0  0  0  0  0  0
   -1.0369   -7.9056   30.7926 N   0  0  0  0  0  0  0  0  0  0  0  0
   -0.2632   -6.9164   31.1800 C   0  0  0  0  0  0  0  0  0  0  0  0
   -0.3275   -6.7557   32.5375 N   0  0  0  0  0  0  0  0  0  0  0  0
    1.5492    0.2275   27.7464 H   0  0  0  0  0  0  0  0  0  0  0  0
    3.1275   -0.9690   29.2653 H   0  0  0  0  0  0  0  0  0  0  0  0
   -1.6299   -2.4725   28.7245 H   0  0  0  0  0  0  0  0  0  0  0  0
    3.7621   -2.0132   31.4120 H   0  0  0  0  0  0  0  0  0  0  0  0
    3.9968   -3.7700   31.2514 H   0  0  0  0  0  0  0  0  0  0  0  0
    5.4808   -0.7724   35.3083 H   0  0  0  0  0  0  0  0  0  0  0  0
    5.7041    1.6909   34.9867 H   0  0  0  0  0  0  0  0  0  0  0  0
    4.0945    2.8489   33.4669 H   0  0  0  0  0  0  0  0  0  0  0  0
    2.0274   -0.6074   32.7285 H   0  0  0  0  0  0  0  0  0  0  0  0
    0.0858   -3.4638   33.6399 H   0  0  0  0  0  0  0  0  0  0  0  0
    0.4207   -5.3218   35.5056 H   0  0  0  0  0  0  0  0  0  0  0  0
   -1.0472   -7.1019   36.2840 H   0  0  0  0  0  0  0  0  0  0  0  0
   -2.2836   -8.4882   34.6757 H   0  0  0  0  0  0  0  0  0  0  0  0
    0.3490   -6.3189   30.5250 H   0  0  0  0  0  0  0  0  0  0  0  0
  1  2  1  0
  2  3  2  0
  3  4  1  0
  4  5  2  0
  5  6  1  0
  6  7  2  0
  6  8  1  0
  8  9  2  0
  9 10  1  0
 10 11  1  0
 11 12  1  0
 12 13  1  0
 13 14  1  0
 14 15  2  0
 15 16  1  0
 16 17  2  0
 17 18  1  0
 18 19  2  0
 13 20  2  0
 20 21  1  0
 21 22  2  0
 22 23  1  0
 23 24  1  0
 24 25  2  0
 25 26  1  0
 26 27  2  0
 27 28  1  0
 28 29  2  0
 29 30  1  0
 30 31  2  0
 31 32  1  0
  7  2  1  0
 23  9  1  0
 32 24  1  0
 10  5  1  0
 22 12  1  0
 32 28  1  0
 19 14  1  0
  3 33  1  0
  4 34  1  0
  7 35  1  0
 11 36  1  0
 11 37  1  0
 15 38  1  0
 16 39  1  0
 17 40  1  0
 19 41  1  0
 23 42  1  0
 25 43  1  0
 26 44  1  0
 27 45  1  0
 31 46  1  0
M  END
>  <Energy>  (588) 
79.720114882390519

>  <compound_id>  (588) 
2350

>  <target_id>  (588) 
1

>  <reference_id>  (588) 
180

>  <inspiration_ids>  (588) 
[180, 133]

>  <energy_score>  (588) 
-94.21366106756804

>  <distance_score>  (588) 
1.2529647746433674

>  <path>  (588) 
/opt/xchem-fragalysis-2/maxwin/BulkDock/SCRATCH/505736/C2350-P180/C2350-P180.minimised.mol

>  <scratch_subdir>  (588) 
/opt/xchem-fragalysis-2/maxwin/BulkDock/SCRATCH/505736/C2350-P180

>  <fragmenstein_runtime>  (588) 
1.917952299118042

>  <fragmenstein_outcome>  (588) 
too moved

>  <fragmenstein_mode>  (588) 
expansion

>  <fragmenstein_error>  (588) 


$$$$
C2350-P133
     RDKit          3D

 46 52  0  0  0  0  0  0  0  0999 V2000
   -0.9511   -0.2337   27.5133 F   0  0  0  0  0  0  0  0  0  0  0  0
   -0.1210   -0.9944   28.2389 C   0  0  0  0  0  0  0  0  0  0  0  0
    1.2229   -0.6386   28.3282 C   0  0  0  0  0  0  0  0  0  0  0  0
    2.1056   -1.3408   29.1586 C   0  0  0  0  0  0  0  0  0  0  0  0
    1.5553   -2.3786   29.9206 C   0  0  0  0  0  0  0  0  0  0  0  0
    0.2185   -2.7726   29.7917 C   0  0  0  0  0  0  0  0  0  0  0  0
   -0.6341   -2.0931   28.9174 C   0  0  0  0  0  0  0  0  0  0  0  0
   -0.0864   -3.7749   30.6737 N   0  0  0  0  0  0  0  0  0  0  0  0
    0.9680   -3.8754   31.4396 C   0  0  0  0  0  0  0  0  0  0  0  0
    2.0299   -3.1517   30.9564 N   0  0  0  0  0  0  0  0  0  0  0  0
    3.3117   -3.0353   31.6430 C   0  0  0  0  0  0  0  0  0  0  0  0
    3.2438   -3.2127   33.0879 N   0  0  0  0  0  0  0  0  0  0  0  0
    3.5995   -2.3644   34.1038 C   0  0  0  0  0  0  0  0  0  0  0  0
    3.7833   -0.9419   33.9668 C   0  0  0  0  0  0  0  0  0  0  0  0
    4.7923   -0.2692   34.6446 C   0  0  0  0  0  0  0  0  0  0  0  0
    4.9284    1.1009   34.4655 C   0  0  0  0  0  0  0  0  0  0  0  0
    4.0389    1.7462   33.6173 C   0  0  0  0  0  0  0  0  0  0  0  0
    3.0291    1.1226   32.9676 N   0  0  0  0  0  0  0  0  0  0  0  0
    2.9021   -0.1944   33.1880 C   0  0  0  0  0  0  0  0  0  0  0  0
    3.5482   -3.0497   35.2322 N   0  0  0  0  0  0  0  0  0  0  0  0
    2.7829   -4.1674   34.9871 N   0  0  0  0  0  0  0  0  0  0  0  0
    2.4358   -4.1059   33.7200 C   0  0  0  0  0  0  0  0  0  0  0  0
    0.8780   -4.3909   33.0728 S   0  0  0  0  0  4  0  0  0  0  0  0
    0.2522   -5.9062   33.4183 C   0  0  0  0  0  0  0  0  0  0  0  0
    0.0536   -6.0901   34.7392 C   0  0  0  0  0  0  0  0  0  0  0  0
   -0.8652   -7.1084   35.1798 C   0  0  0  0  0  0  0  0  0  0  0  0
   -1.5602   -7.8285   34.2866 C   0  0  0  0  0  0  0  0  0  0  0  0
   -1.2673   -7.7318   32.9005 C   0  0  0  0  0  0  0  0  0  0  0  0
   -1.7013   -8.3872   31.8455 N   0  0  0  0  0  0  0  0  0  0  0  0
   -1.0863   -7.8645   30.7382 N   0  0  0  0  0  0  0  0  0  0  0  0
   -0.3043   -6.8902   31.1459 C   0  0  0  0  0  0  0  0  0  0  0  0
   -0.3629   -6.7600   32.5067 N   0  0  0  0  0  0  0  0  0  0  0  0
    1.5721    0.2187   27.7583 H   0  0  0  0  0  0  0  0  0  0  0  0
    3.1388   -1.0247   29.2532 H   0  0  0  0  0  0  0  0  0  0  0  0
   -1.6790   -2.3614   28.8162 H   0  0  0  0  0  0  0  0  0  0  0  0
    3.7662   -2.0713   31.4079 H   0  0  0  0  0  0  0  0  0  0  0  0
    3.9522   -3.8348   31.2552 H   0  0  0  0  0  0  0  0  0  0  0  0
    5.4711   -0.8031   35.3057 H   0  0  0  0  0  0  0  0  0  0  0  0
    5.7076    1.6578   34.9749 H   0  0  0  0  0  0  0  0  0  0  0  0
    4.1110    2.8166   33.4418 H   0  0  0  0  0  0  0  0  0  0  0  0
    2.0323   -0.6335   32.7074 H   0  0  0  0  0  0  0  0  0  0  0  0
    0.0602   -3.5001   33.6819 H   0  0  0  0  0  0  0  0  0  0  0  0
    0.4170   -5.4078   35.5051 H   0  0  0  0  0  0  0  0  0  0  0  0
   -1.0552   -7.2101   36.2435 H   0  0  0  0  0  0  0  0  0  0  0  0
   -2.3308   -8.5164   34.6101 H   0  0  0  0  0  0  0  0  0  0  0  0
    0.3106   -6.2831   30.5026 H   0  0  0  0  0  0  0  0  0  0  0  0
  1  2  1  0
  2  3  2  0
  3  4  1  0
  4  5  2  0
  5  6  1  0
  6  7  2  0
  6  8  1  0
  8  9  2  0
  9 10  1  0
 10 11  1  0
 11 12  1  0
 12 13  1  0
 13 14  1  0
 14 15  2  0
 15 16  1  0
 16 17  2  0
 17 18  1  0
 18 19  2  0
 13 20  2  0
 20 21  1  0
 21 22  2  0
 22 23  1  0
 23 24  1  0
 24 25  2  0
 25 26  1  0
 26 27  2  0
 27 28  1  0
 28 29  2  0
 29 30  1  0
 30 31  2  0
 31 32  1  0
  7  2  1  0
 23  9  1  0
 32 24  1  0
 10  5  1  0
 22 12  1  0
 32 28  1  0
 19 14  1  0
  3 33  1  0
  4 34  1  0
  7 35  1  0
 11 36  1  0
 11 37  1  0
 15 38  1  0
 16 39  1  0
 17 40  1  0
 19 41  1  0
 23 42  1  0
 25 43  1  0
 26 44  1  0
 27 45  1  0
 31 46  1  0
M  END
>  <Energy>  (589) 
79.539467746675626

>  <compound_id>  (589) 
2350

>  <target_id>  (589) 
1

>  <reference_id>  (589) 
133

>  <inspiration_ids>  (589) 
[180, 133]

>  <energy_score>  (589) 
-94.39430820328204

>  <distance_score>  (589) 
1.2572049705453938

>  <path>  (589) 
/opt/xchem-fragalysis-2/maxwin/BulkDock/SCRATCH/505736/C2350-P133/C2350-P133.minimised.mol

>  <scratch_subdir>  (589) 
/opt/xchem-fragalysis-2/maxwin/BulkDock/SCRATCH/505736/C2350-P133

>  <fragmenstein_runtime>  (589) 
1.9886353015899658

>  <fragmenstein_outcome>  (589) 
too moved

>  <fragmenstein_mode>  (589) 
expansion

>  <fragmenstein_error>  (589) 


$$$$
C2700-P180
     RDKit          3D

 40 44  0  0  0  0  0  0  0  0999 V2000
   -1.3650    0.1493   27.5690 F   0  0  0  0  0  0  0  0  0  0  0  0
   -0.3951   -0.6057   28.0981 C   0  0  0  0  0  0  0  0  0  0  0  0
    0.8892   -0.0769   28.2069 C   0  0  0  0  0  0  0  0  0  0  0  0
    1.9285   -0.8373   28.7556 C   0  0  0  0  0  0  0  0  0  0  0  0
    1.6384   -2.1339   29.2000 C   0  0  0  0  0  0  0  0  0  0  0  0
    2.4627   -3.0641   29.7789 N   0  0  0  0  0  0  0  0  0  0  0  0
    1.6939   -4.1035   29.9733 C   0  0  0  0  0  0  0  0  0  0  0  0
    2.2238   -5.6179   30.5764 S   0  0  0  0  0  0  0  0  0  0  0  0
    1.2178   -5.7262   31.9641 C   0  0  0  0  0  0  0  0  0  0  0  0
    1.3740   -4.8564   32.9722 C   0  0  0  0  0  0  0  0  0  0  0  0
    0.3453   -4.7691   33.9945 C   0  0  0  0  0  0  0  0  0  0  0  0
    0.2366   -3.3861   34.6119 C   0  0  0  0  0  0  0  0  0  0  0  0
   -0.2853   -2.4122   33.5689 C   0  0  0  0  0  0  0  0  0  0  0  0
   -1.5572   -2.6054   33.0335 C   0  0  0  0  0  0  0  0  0  0  0  0
   -2.0157   -1.7581   32.0476 C   0  0  0  0  0  0  0  0  0  0  0  0
   -1.3016   -0.7265   31.5584 N   0  0  0  0  0  0  0  0  0  0  0  0
   -0.0656   -0.5588   32.0674 C   0  0  0  0  0  0  0  0  0  0  0  0
    0.4776   -1.3620   33.0626 C   0  0  0  0  0  0  0  0  0  0  0  0
   -0.5683   -5.7589   34.1470 C   0  0  0  0  0  0  0  0  0  0  0  0
   -0.6660   -6.7642   33.1357 C   0  0  0  0  0  0  0  0  0  0  0  0
   -1.5338   -7.7266   32.9090 N   0  0  0  0  0  0  0  0  0  0  0  0
   -1.2747   -8.2609   31.6656 N   0  0  0  0  0  0  0  0  0  0  0  0
   -0.2294   -7.6374   31.1796 C   0  0  0  0  0  0  0  0  0  0  0  0
    0.1954   -6.6709   32.0511 N   0  0  0  0  0  0  0  0  0  0  0  0
    0.4122   -3.9002   29.5596 N   0  0  0  0  0  0  0  0  0  0  0  0
    0.3445   -2.6299   29.0622 C   0  0  0  0  0  0  0  0  0  0  0  0
   -0.7025   -1.8992   28.5096 C   0  0  0  0  0  0  0  0  0  0  0  0
    1.0726    0.9361   27.8616 H   0  0  0  0  0  0  0  0  0  0  0  0
    2.9312   -0.4350   28.8435 H   0  0  0  0  0  0  0  0  0  0  0  0
    2.1594   -4.1020   32.9618 H   0  0  0  0  0  0  0  0  0  0  0  0
    1.2067   -3.0603   35.0069 H   0  0  0  0  0  0  0  0  0  0  0  0
   -0.4563   -3.3932   35.4629 H   0  0  0  0  0  0  0  0  0  0  0  0
   -2.1951   -3.3935   33.3961 H   0  0  0  0  0  0  0  0  0  0  0  0
   -3.0091   -1.8790   31.6342 H   0  0  0  0  0  0  0  0  0  0  0  0
    0.5018    0.2644   31.6416 H   0  0  0  0  0  0  0  0  0  0  0  0
    1.4848   -1.1687   33.4166 H   0  0  0  0  0  0  0  0  0  0  0  0
   -1.3727   -5.6846   34.8717 H   0  0  0  0  0  0  0  0  0  0  0  0
    0.2455   -7.8502   30.2336 H   0  0  0  0  0  0  0  0  0  0  0  0
   -0.3401   -4.5705   29.5565 H   0  0  0  0  0  0  0  0  0  0  0  0
   -1.7038   -2.2912   28.3892 H   0  0  0  0  0  0  0  0  0  0  0  0
  1  2  1  0
  2  3  2  0
  3  4  1  0
  4  5  2  0
  5  6  1  0
  6  7  2  0
  7  8  1  0
  8  9  1  0
  9 10  2  0
 10 11  1  0
 11 12  1  0
 12 13  1  0
 13 14  2  0
 14 15  1  0
 15 16  2  0
 16 17  1  0
 17 18  2  0
 11 19  2  0
 19 20  1  0
 20 21  2  0
 21 22  1  0
 22 23  2  0
 23 24  1  0
  7 25  1  0
 25 26  1  0
 26 27  2  0
 27  2  1  0
 26  5  1  0
 24  9  1  0
 18 13  1  0
 24 20  1  0
  3 28  1  0
  4 29  1  0
 10 30  1  0
 12 31  1  0
 12 32  1  0
 14 33  1  0
 15 34  1  0
 17 35  1  0
 18 36  1  0
 19 37  1  0
 23 38  1  0
 25 39  1  0
 27 40  1  0
M  END
>  <Energy>  (590) 
57.378027407215434

>  <compound_id>  (590) 
2700

>  <target_id>  (590) 
1

>  <reference_id>  (590) 
180

>  <inspiration_ids>  (590) 
[180, 134]

>  <energy_score>  (590) 
-27.051241357137087

>  <distance_score>  (590) 
1.4176069573673833

>  <path>  (590) 
/opt/xchem-fragalysis-2/maxwin/BulkDock/SCRATCH/505736/C2700-P180/C2700-P180.minimised.mol

>  <scratch_subdir>  (590) 
/opt/xchem-fragalysis-2/maxwin/BulkDock/SCRATCH/505736/C2700-P180

>  <fragmenstein_runtime>  (590) 
2.424082040786743

>  <fragmenstein_outcome>  (590) 
too moved

>  <fragmenstein_mode>  (590) 
expansion

>  <fragmenstein_error>  (590) 


$$$$
C2700-P134
     RDKit          3D

 40 44  0  0  0  0  0  0  0  0999 V2000
   -1.4148    0.6171   27.5249 F   0  0  0  0  0  0  0  0  0  0  0  0
   -0.5075   -0.1984   28.0716 C   0  0  0  0  0  0  0  0  0  0  0  0
    0.7966    0.2590   28.2553 C   0  0  0  0  0  0  0  0  0  0  0  0
    1.7742   -0.5758   28.8086 C   0  0  0  0  0  0  0  0  0  0  0  0
    1.4004   -1.8751   29.1701 C   0  0  0  0  0  0  0  0  0  0  0  0
    2.1543   -2.8823   29.7109 N   0  0  0  0  0  0  0  0  0  0  0  0
    1.3242   -3.8878   29.7847 C   0  0  0  0  0  0  0  0  0  0  0  0
    1.7390   -5.4827   30.1934 S   0  0  0  0  0  0  0  0  0  0  0  0
    0.9473   -5.6139   31.7133 C   0  0  0  0  0  0  0  0  0  0  0  0
    1.2300   -4.7679   32.7138 C   0  0  0  0  0  0  0  0  0  0  0  0
    0.3435   -4.7219   33.8659 C   0  0  0  0  0  0  0  0  0  0  0  0
    0.2673   -3.3452   34.5023 C   0  0  0  0  0  0  0  0  0  0  0  0
   -0.2883   -2.3434   33.4981 C   0  0  0  0  0  0  0  0  0  0  0  0
   -1.5222   -2.5782   32.8880 C   0  0  0  0  0  0  0  0  0  0  0  0
   -2.0016   -1.6838   31.9522 C   0  0  0  0  0  0  0  0  0  0  0  0
   -1.3434   -0.5683   31.5818 N   0  0  0  0  0  0  0  0  0  0  0  0
   -0.1403   -0.3661   32.1536 C   0  0  0  0  0  0  0  0  0  0  0  0
    0.4168   -1.2067   33.1094 C   0  0  0  0  0  0  0  0  0  0  0  0
   -0.5132   -5.7402   34.1243 C   0  0  0  0  0  0  0  0  0  0  0  0
   -0.7244   -6.7285   33.1144 C   0  0  0  0  0  0  0  0  0  0  0  0
   -1.5910   -7.7092   32.9841 N   0  0  0  0  0  0  0  0  0  0  0  0
   -1.4817   -8.2201   31.7091 N   0  0  0  0  0  0  0  0  0  0  0  0
   -0.5295   -7.5581   31.1021 C   0  0  0  0  0  0  0  0  0  0  0  0
   -0.0259   -6.5888   31.9247 N   0  0  0  0  0  0  0  0  0  0  0  0
    0.0701   -3.5915   29.3607 N   0  0  0  0  0  0  0  0  0  0  0  0
    0.0881   -2.2910   28.9582 C   0  0  0  0  0  0  0  0  0  0  0  0
   -0.9004   -1.4851   28.4130 C   0  0  0  0  0  0  0  0  0  0  0  0
    1.0444    1.2742   27.9607 H   0  0  0  0  0  0  0  0  0  0  0  0
    2.7921   -0.2323   28.9504 H   0  0  0  0  0  0  0  0  0  0  0  0
    1.9951   -3.9988   32.6175 H   0  0  0  0  0  0  0  0  0  0  0  0
    1.2589   -3.0377   34.8566 H   0  0  0  0  0  0  0  0  0  0  0  0
   -0.3910   -3.3558   35.3799 H   0  0  0  0  0  0  0  0  0  0  0  0
   -2.1115   -3.4422   33.1442 H   0  0  0  0  0  0  0  0  0  0  0  0
   -2.9613   -1.8355   31.4721 H   0  0  0  0  0  0  0  0  0  0  0  0
    0.3882    0.5213   31.8157 H   0  0  0  0  0  0  0  0  0  0  0  0
    1.3929   -0.9753   33.5228 H   0  0  0  0  0  0  0  0  0  0  0  0
   -1.2160   -5.7016   34.9502 H   0  0  0  0  0  0  0  0  0  0  0  0
   -0.1741   -7.7491   30.1017 H   0  0  0  0  0  0  0  0  0  0  0  0
   -0.7034   -4.2286   29.2474 H   0  0  0  0  0  0  0  0  0  0  0  0
   -1.9099   -1.8254   28.2218 H   0  0  0  0  0  0  0  0  0  0  0  0
  1  2  1  0
  2  3  2  0
  3  4  1  0
  4  5  2  0
  5  6  1  0
  6  7  2  0
  7  8  1  0
  8  9  1  0
  9 10  2  0
 10 11  1  0
 11 12  1  0
 12 13  1  0
 13 14  2  0
 14 15  1  0
 15 16  2  0
 16 17  1  0
 17 18  2  0
 11 19  2  0
 19 20  1  0
 20 21  2  0
 21 22  1  0
 22 23  2  0
 23 24  1  0
  7 25  1  0
 25 26  1  0
 26 27  2  0
 27  2  1  0
 26  5  1  0
 24  9  1  0
 18 13  1  0
 24 20  1  0
  3 28  1  0
  4 29  1  0
 10 30  1  0
 12 31  1  0
 12 32  1  0
 14 33  1  0
 15 34  1  0
 17 35  1  0
 18 36  1  0
 19 37  1  0
 23 38  1  0
 25 39  1  0
 27 40  1  0
M  END
>  <Energy>  (591) 
58.865879183134545

>  <compound_id>  (591) 
2700

>  <target_id>  (591) 
1

>  <reference_id>  (591) 
134

>  <inspiration_ids>  (591) 
[180, 134]

>  <energy_score>  (591) 
-25.56338958121873

>  <distance_score>  (591) 
1.5123988758048061

>  <path>  (591) 
/opt/xchem-fragalysis-2/maxwin/BulkDock/SCRATCH/505736/C2700-P134/C2700-P134.minimised.mol

>  <scratch_subdir>  (591) 
/opt/xchem-fragalysis-2/maxwin/BulkDock/SCRATCH/505736/C2700-P134

>  <fragmenstein_runtime>  (591) 
2.3123981952667236

>  <fragmenstein_outcome>  (591) 
too moved

>  <fragmenstein_mode>  (591) 
expansion

>  <fragmenstein_error>  (591) 


$$$$
C2700-P180
     RDKit          2D

  0  0  0  0  0  0  0  0  0  0999 V2000
M  END
>  <compound_id>  (592) 
2700

>  <target_id>  (592) 
1

>  <reference_id>  (592) 
180

>  <inspiration_ids>  (592) 
[180, 135]

>  <energy_score>  (592) 
nan

>  <distance_score>  (592) 
nan

>  <path>  (592) 
/opt/xchem-fragalysis-2/maxwin/BulkDock/SCRATCH/505736/C2700-P180/C2700-P180.minimised.mol

>  <scratch_subdir>  (592) 
/opt/xchem-fragalysis-2/maxwin/BulkDock/SCRATCH/505736/C2700-P180

>  <fragmenstein_runtime>  (592) 
0.23064541816711426

>  <fragmenstein_outcome>  (592) 
too distant

>  <fragmenstein_mode>  (592) 
expansion

>  <fragmenstein_error>  (592) 
DistanceError: hit0+hit1

$$$$
C2702-P180
     RDKit          3D

 65 71  0  0  0  0  0  0  0  0999 V2000
    1.3617   -3.0347   36.3624 O   0  0  0  0  0  0  0  0  0  0  0  0
    2.4223   -3.5234   36.2518 C   0  0  0  0  0  0  0  0  0  0  0  0
    3.2051   -4.4805   37.2173 N   0  0  0  0  0  0  0  0  0  0  0  0
    2.7903   -5.1093   38.4827 C   0  0  0  0  0  0  0  0  0  0  0  0
    1.9820   -4.1133   39.4033 C   0  0  0  0  0  0  0  0  0  0  0  0
    2.5313   -3.0084   39.9316 N   0  0  0  0  0  0  0  0  0  0  0  0
    1.4736   -2.4666   40.5608 N   0  0  0  0  0  0  0  0  0  0  0  0
    0.3540   -3.2348   40.4222 C   0  0  0  0  0  0  0  0  0  0  0  0
   -0.9339   -2.9353   40.9679 C   0  0  0  0  0  0  0  0  0  0  0  0
   -2.0817   -3.6871   40.8104 C   0  0  0  0  0  0  0  0  0  0  0  0
   -3.2073   -3.1190   41.4744 C   0  0  0  0  0  0  0  0  0  0  0  0
   -2.8832   -1.9496   42.1234 C   0  0  0  0  0  0  0  0  0  0  0  0
   -1.2329   -1.5449   41.9260 S   0  0  0  0  0  0  0  0  0  0  0  0
    0.6535   -4.2918   39.6988 N   0  0  0  0  0  0  0  0  0  0  0  0
    3.9138   -5.8888   39.2345 C   0  0  0  0  0  0  0  0  0  0  0  0
    2.9184   -7.0389   39.4553 C   0  0  0  0  0  0  0  0  0  0  0  0
    2.1201   -6.4994   38.2547 C   0  0  0  0  0  0  0  0  0  0  0  0
    3.2661   -3.3537   34.9206 C   0  0  0  0  0  0  0  0  0  0  0  0
    3.8693   -5.0406   34.4545 S   0  0  0  0  0  0  0  0  0  0  0  0
    4.6986   -2.3516   35.2958 Cl  0  0  0  0  0  0  0  0  0  0  0  0
    2.4138   -2.6757   33.8026 C   0  0  0  0  0  0  0  0  0  0  0  0
    2.9833   -2.6062   32.3605 C   0  0  0  0  0  0  0  0  0  0  0  0
    1.9953   -2.9452   31.3273 N   0  0  0  0  0  0  0  0  0  0  0  0
    1.3897   -4.1650   31.1606 C   0  0  0  0  0  0  0  0  0  0  0  0
    2.0384   -5.6003   31.8345 S   0  0  0  0  0  0  0  0  0  0  0  0
    0.6668   -6.1611   32.7142 C   0  0  0  0  0  0  0  0  0  0  0  0
    0.4744   -5.9143   34.0259 C   0  0  0  0  0  0  0  0  0  0  0  0
   -0.5935   -6.5798   34.7496 C   0  0  0  0  0  0  0  0  0  0  0  0
   -1.3876   -7.4692   34.1321 C   0  0  0  0  0  0  0  0  0  0  0  0
   -1.2188   -7.7108   32.7426 C   0  0  0  0  0  0  0  0  0  0  0  0
   -1.8343   -8.4930   31.8872 N   0  0  0  0  0  0  0  0  0  0  0  0
   -1.2267   -8.3584   30.6674 N   0  0  0  0  0  0  0  0  0  0  0  0
   -0.2751   -7.4719   30.7931 C   0  0  0  0  0  0  0  0  0  0  0  0
   -0.2073   -7.0383   32.0857 N   0  0  0  0  0  0  0  0  0  0  0  0
    0.3631   -4.1211   30.3522 N   0  0  0  0  0  0  0  0  0  0  0  0
    0.3775   -2.8472   29.8454 C   0  0  0  0  0  0  0  0  0  0  0  0
   -0.4865   -2.2591   28.9126 C   0  0  0  0  0  0  0  0  0  0  0  0
   -0.2273   -0.9518   28.5136 C   0  0  0  0  0  0  0  0  0  0  0  0
   -1.0611   -0.3463   27.6581 F   0  0  0  0  0  0  0  0  0  0  0  0
    0.8717   -0.2469   28.9931 C   0  0  0  0  0  0  0  0  0  0  0  0
    1.7328   -0.8091   29.9442 C   0  0  0  0  0  0  0  0  0  0  0  0
    1.4438   -2.1096   30.3757 C   0  0  0  0  0  0  0  0  0  0  0  0
    4.1354   -4.6486   36.8483 H   0  0  0  0  0  0  0  0  0  0  0  0
    1.5745   -1.5889   41.0555 H   0  0  0  0  0  0  0  0  0  0  0  0
   -2.1139   -4.6075   40.2369 H   0  0  0  0  0  0  0  0  0  0  0  0
   -4.1998   -3.5536   41.4691 H   0  0  0  0  0  0  0  0  0  0  0  0
   -3.5361   -1.3121   42.7036 H   0  0  0  0  0  0  0  0  0  0  0  0
    4.7667   -6.1691   38.6037 H   0  0  0  0  0  0  0  0  0  0  0  0
    4.3036   -5.4320   40.1492 H   0  0  0  0  0  0  0  0  0  0  0  0
    3.3237   -8.0473   39.3405 H   0  0  0  0  0  0  0  0  0  0  0  0
    2.3780   -6.9790   40.4068 H   0  0  0  0  0  0  0  0  0  0  0  0
    1.0322   -6.5530   38.3560 H   0  0  0  0  0  0  0  0  0  0  0  0
    2.3920   -6.9812   37.3064 H   0  0  0  0  0  0  0  0  0  0  0  0
    4.9714   -4.6169   33.8177 H   0  0  0  0  0  0  0  0  0  0  0  0
    2.1931   -1.6446   34.1166 H   0  0  0  0  0  0  0  0  0  0  0  0
    1.4253   -3.1492   33.7816 H   0  0  0  0  0  0  0  0  0  0  0  0
    3.8412   -3.2645   32.1980 H   0  0  0  0  0  0  0  0  0  0  0  0
    3.3318   -1.5875   32.1598 H   0  0  0  0  0  0  0  0  0  0  0  0
    1.0981   -5.2739   34.6234 H   0  0  0  0  0  0  0  0  0  0  0  0
   -0.7090   -6.3678   35.8099 H   0  0  0  0  0  0  0  0  0  0  0  0
   -2.1565   -8.0149   34.6662 H   0  0  0  0  0  0  0  0  0  0  0  0
    0.3741   -7.1196   30.0081 H   0  0  0  0  0  0  0  0  0  0  0  0
   -1.3309   -2.7996   28.5013 H   0  0  0  0  0  0  0  0  0  0  0  0
    1.0346    0.7683   28.6404 H   0  0  0  0  0  0  0  0  0  0  0  0
    2.5663   -0.2381   30.3387 H   0  0  0  0  0  0  0  0  0  0  0  0
  1  2  2  0
  2  3  1  0
  3  4  1  0
  4  5  1  0
  5  6  2  0
  6  7  1  0
  7  8  1  0
  8  9  1  0
  9 10  2  0
 10 11  1  0
 11 12  2  0
 12 13  1  0
  8 14  2  0
  4 15  1  0
 15 16  1  0
 16 17  1  0
  2 18  1  0
 18 19  1  0
 18 20  1  0
 18 21  1  0
 21 22  1  0
 22 23  1  0
 23 24  1  0
 24 25  1  0
 25 26  1  0
 26 27  2  0
 27 28  1  0
 28 29  2  0
 29 30  1  0
 30 31  2  0
 31 32  1  0
 32 33  2  0
 33 34  1  0
 24 35  2  0
 35 36  1  0
 36 37  2  0
 37 38  1  0
 38 39  1  0
 38 40  2  0
 40 41  1  0
 41 42  2  0
 17  4  1  0
 42 23  1  0
 14  5  1  0
 34 26  1  0
 42 36  1  0
 13  9  1  0
 34 30  1  0
  3 43  1  0
  7 44  1  0
 10 45  1  0
 11 46  1  0
 12 47  1  0
 15 48  1  0
 15 49  1  0
 16 50  1  0
 16 51  1  0
 17 52  1  0
 17 53  1  0
 19 54  1  0
 21 55  1  0
 21 56  1  0
 22 57  1  0
 22 58  1  0
 27 59  1  0
 28 60  1  0
 29 61  1  0
 33 62  1  0
 37 63  1  0
 40 64  1  0
 41 65  1  0
M  END
>  <Energy>  (593) 
118.83805731540504

>  <compound_id>  (593) 
2702

>  <target_id>  (593) 
1

>  <reference_id>  (593) 
180

>  <inspiration_ids>  (593) 
[180, 140]

>  <energy_score>  (593) 
-66.00779748379946

>  <distance_score>  (593) 
1.8634499498494126

>  <path>  (593) 
/opt/xchem-fragalysis-2/maxwin/BulkDock/SCRATCH/505736/C2702-P180/C2702-P180.minimised.mol

>  <scratch_subdir>  (593) 
/opt/xchem-fragalysis-2/maxwin/BulkDock/SCRATCH/505736/C2702-P180

>  <fragmenstein_runtime>  (593) 
10.524937868118286

>  <fragmenstein_outcome>  (593) 
too moved

>  <fragmenstein_mode>  (593) 
expansion

>  <fragmenstein_error>  (593) 


$$$$
C2702-P140
     RDKit          3D

 65 71  0  0  0  0  0  0  0  0999 V2000
    5.8547   -4.4473   34.6459 O   0  0  0  0  0  0  0  0  0  0  0  0
    4.8406   -4.5541   35.2784 C   0  0  0  0  0  0  0  0  0  0  0  0
    4.5592   -5.2870   36.5004 N   0  0  0  0  0  0  0  0  0  0  0  0
    5.4458   -6.0454   37.3953 C   0  0  0  0  0  0  0  0  0  0  0  0
    6.8107   -5.3044   37.6572 C   0  0  0  0  0  0  0  0  0  0  0  0
    6.8655   -4.0441   38.1175 N   0  0  0  0  0  0  0  0  0  0  0  0
    8.1931   -3.8349   38.1503 N   0  0  0  0  0  0  0  0  0  0  0  0
    8.8892   -4.9373   37.7460 C   0  0  0  0  0  0  0  0  0  0  0  0
   10.3148   -5.0398   37.6760 C   0  0  0  0  0  0  0  0  0  0  0  0
   11.0369   -6.1445   37.2663 C   0  0  0  0  0  0  0  0  0  0  0  0
   12.4450   -5.9280   37.3115 C   0  0  0  0  0  0  0  0  0  0  0  0
   12.7552   -4.6623   37.7547 C   0  0  0  0  0  0  0  0  0  0  0  0
   11.3551   -3.7478   38.1115 S   0  0  0  0  0  0  0  0  0  0  0  0
    8.0336   -5.8871   37.4338 N   0  0  0  0  0  0  0  0  0  0  0  0
    4.7413   -6.5041   38.7105 C   0  0  0  0  0  0  0  0  0  0  0  0
    4.3512   -7.8035   37.9809 C   0  0  0  0  0  0  0  0  0  0  0  0
    5.5415   -7.5512   37.0315 C   0  0  0  0  0  0  0  0  0  0  0  0
    3.5105   -3.9118   34.7206 C   0  0  0  0  0  0  0  0  0  0  0  0
    2.6408   -5.2813   33.8615 S   0  0  0  0  0  0  0  0  0  0  0  0
    2.5302   -3.3620   36.1313 Cl  0  0  0  0  0  0  0  0  0  0  0  0
    3.7748   -2.7448   33.7478 C   0  0  0  0  0  0  0  0  0  0  0  0
    2.5892   -1.8259   33.3930 C   0  0  0  0  0  0  0  0  0  0  0  0
    1.7676   -2.2056   32.2522 N   0  0  0  0  0  0  0  0  0  0  0  0
    0.4729   -2.6825   32.2620 C   0  0  0  0  0  0  0  0  0  0  0  0
   -0.5323   -2.7745   33.6595 S   0  0  0  0  0  0  0  0  0  0  0  0
   -0.5724   -4.4452   34.0914 C   0  0  0  0  0  0  0  0  0  0  0  0
   -0.5676   -4.7082   35.4192 C   0  0  0  0  0  0  0  0  0  0  0  0
   -0.6263   -6.0676   35.9054 C   0  0  0  0  0  0  0  0  0  0  0  0
   -0.7447   -7.0957   35.0538 C   0  0  0  0  0  0  0  0  0  0  0  0
   -0.7933   -6.8572   33.6563 C   0  0  0  0  0  0  0  0  0  0  0  0
   -0.9064   -7.6768   32.6344 N   0  0  0  0  0  0  0  0  0  0  0  0
   -0.8959   -6.9268   31.4912 N   0  0  0  0  0  0  0  0  0  0  0  0
   -0.7774   -5.6659   31.8459 C   0  0  0  0  0  0  0  0  0  0  0  0
   -0.7009   -5.5381   33.2086 N   0  0  0  0  0  0  0  0  0  0  0  0
   -0.0640   -2.6803   31.0657 N   0  0  0  0  0  0  0  0  0  0  0  0
    0.8130   -1.9992   30.2769 C   0  0  0  0  0  0  0  0  0  0  0  0
    0.6114   -1.4876   28.9918 C   0  0  0  0  0  0  0  0  0  0  0  0
    1.6138   -0.6820   28.4644 C   0  0  0  0  0  0  0  0  0  0  0  0
    1.3857   -0.0237   27.3233 F   0  0  0  0  0  0  0  0  0  0  0  0
    2.8276   -0.4856   29.1154 C   0  0  0  0  0  0  0  0  0  0  0  0
    3.0591   -1.0310   30.3811 C   0  0  0  0  0  0  0  0  0  0  0  0
    1.9999   -1.7407   30.9624 C   0  0  0  0  0  0  0  0  0  0  0  0
    3.6094   -5.0830   36.7981 H   0  0  0  0  0  0  0  0  0  0  0  0
    8.5573   -2.9401   38.4545 H   0  0  0  0  0  0  0  0  0  0  0  0
   10.5687   -7.0692   36.9474 H   0  0  0  0  0  0  0  0  0  0  0  0
   13.1896   -6.6639   37.0327 H   0  0  0  0  0  0  0  0  0  0  0  0
   13.7379   -4.2296   37.8863 H   0  0  0  0  0  0  0  0  0  0  0  0
    5.4177   -6.6701   39.5582 H   0  0  0  0  0  0  0  0  0  0  0  0
    3.9014   -5.8930   39.0547 H   0  0  0  0  0  0  0  0  0  0  0  0
    4.4037   -8.7183   38.5764 H   0  0  0  0  0  0  0  0  0  0  0  0
    3.3737   -7.7565   37.4869 H   0  0  0  0  0  0  0  0  0  0  0  0
    5.3611   -7.8112   35.9839 H   0  0  0  0  0  0  0  0  0  0  0  0
    6.4614   -8.0519   37.3567 H   0  0  0  0  0  0  0  0  0  0  0  0
    2.5916   -6.1037   34.9192 H   0  0  0  0  0  0  0  0  0  0  0  0
    4.2577   -3.1080   32.8306 H   0  0  0  0  0  0  0  0  0  0  0  0
    4.5261   -2.0995   34.2266 H   0  0  0  0  0  0  0  0  0  0  0  0
    3.0041   -0.8397   33.1433 H   0  0  0  0  0  0  0  0  0  0  0  0
    1.9379   -1.6226   34.2443 H   0  0  0  0  0  0  0  0  0  0  0  0
   -0.5334   -3.9226   36.1704 H   0  0  0  0  0  0  0  0  0  0  0  0
   -0.5872   -6.2301   36.9787 H   0  0  0  0  0  0  0  0  0  0  0  0
   -0.8031   -8.1091   35.4202 H   0  0  0  0  0  0  0  0  0  0  0  0
   -0.7627   -4.8409   31.1560 H   0  0  0  0  0  0  0  0  0  0  0  0
   -0.3258   -1.6270   28.4638 H   0  0  0  0  0  0  0  0  0  0  0  0
    3.5804    0.1397   28.6424 H   0  0  0  0  0  0  0  0  0  0  0  0
    3.9841   -0.8287   30.9104 H   0  0  0  0  0  0  0  0  0  0  0  0
  1  2  2  0
  2  3  1  0
  3  4  1  0
  4  5  1  0
  5  6  2  0
  6  7  1  0
  7  8  1  0
  8  9  1  0
  9 10  2  0
 10 11  1  0
 11 12  2  0
 12 13  1  0
  8 14  2  0
  4 15  1  0
 15 16  1  0
 16 17  1  0
  2 18  1  0
 18 19  1  0
 18 20  1  0
 18 21  1  0
 21 22  1  0
 22 23  1  0
 23 24  1  0
 24 25  1  0
 25 26  1  0
 26 27  2  0
 27 28  1  0
 28 29  2  0
 29 30  1  0
 30 31  2  0
 31 32  1  0
 32 33  2  0
 33 34  1  0
 24 35  2  0
 35 36  1  0
 36 37  2  0
 37 38  1  0
 38 39  1  0
 38 40  2  0
 40 41  1  0
 41 42  2  0
 17  4  1  0
 42 23  1  0
 14  5  1  0
 34 26  1  0
 42 36  1  0
 13  9  1  0
 34 30  1  0
  3 43  1  0
  7 44  1  0
 10 45  1  0
 11 46  1  0
 12 47  1  0
 15 48  1  0
 15 49  1  0
 16 50  1  0
 16 51  1  0
 17 52  1  0
 17 53  1  0
 19 54  1  0
 21 55  1  0
 21 56  1  0
 22 57  1  0
 22 58  1  0
 27 59  1  0
 28 60  1  0
 29 61  1  0
 33 62  1  0
 37 63  1  0
 40 64  1  0
 41 65  1  0
M  END
>  <Energy>  (594) 
110.32980857361544

>  <compound_id>  (594) 
2702

>  <target_id>  (594) 
1

>  <reference_id>  (594) 
140

>  <inspiration_ids>  (594) 
[180, 140]

>  <energy_score>  (594) 
-87.96110992334073

>  <distance_score>  (594) 
2.512818232576996

>  <path>  (594) 
/opt/xchem-fragalysis-2/maxwin/BulkDock/SCRATCH/505736/C2702-P140/C2702-P140.minimised.mol

>  <scratch_subdir>  (594) 
/opt/xchem-fragalysis-2/maxwin/BulkDock/SCRATCH/505736/C2702-P140

>  <fragmenstein_runtime>  (594) 
12.961861371994019

>  <fragmenstein_outcome>  (594) 
too moved

>  <fragmenstein_mode>  (594) 
expansion

>  <fragmenstein_error>  (594) 


$$$$
C2708-P180
     RDKit          3D

 41 46  0  0  0  0  0  0  0  0999 V2000
   -2.1950    4.0836   25.9540 N   0  0  0  0  0  0  0  0  0  0  0  0
   -0.6331    3.5534   26.2944 S   0  0  0  0  0  0  0  0  0  0  0  0
   -0.1052    4.4248   27.3158 O   0  0  0  0  0  0  0  0  0  0  0  0
    0.0022    3.3562   25.0086 O   0  0  0  0  0  0  0  0  0  0  0  0
   -0.7149    1.9546   26.9993 C   0  0  0  0  0  0  0  0  0  0  0  0
   -1.8602    1.1491   26.9284 C   0  0  0  0  0  0  0  0  0  0  0  0
   -1.4897   -0.0544   27.4851 C   0  0  0  0  0  0  0  0  0  0  0  0
   -0.1790    0.0605   27.8566 N   0  0  0  0  0  0  0  0  0  0  0  0
    0.6449   -0.9082   28.5004 C   0  0  0  0  0  0  0  0  0  0  0  0
    2.0052   -0.5895   28.6164 C   0  0  0  0  0  0  0  0  0  0  0  0
    2.8799   -1.4127   29.3156 C   0  0  0  0  0  0  0  0  0  0  0  0
    2.3705   -2.5505   29.9404 C   0  0  0  0  0  0  0  0  0  0  0  0
    3.0196   -3.4089   30.7686 N   0  0  0  0  0  0  0  0  0  0  0  0
    2.1127   -4.2517   31.1970 C   0  0  0  0  0  0  0  0  0  0  0  0
    0.9440   -4.1106   30.5065 N   0  0  0  0  0  0  0  0  0  0  0  0
    1.0359   -2.9111   29.7867 C   0  0  0  0  0  0  0  0  0  0  0  0
    0.1326   -2.1190   29.0352 C   0  0  0  0  0  0  0  0  0  0  0  0
   -0.2067   -4.9838   30.3918 C   0  0  0  0  0  0  0  0  0  0  0  0
   -0.2988   -6.2632   31.1456 C   0  0  0  0  0  0  0  0  0  0  0  0
   -1.0932   -7.2733   30.8244 N   0  0  0  0  0  0  0  0  0  0  0  0
   -1.4883   -7.8869   31.9902 N   0  0  0  0  0  0  0  0  0  0  0  0
   -0.8689   -7.2870   32.9827 C   0  0  0  0  0  0  0  0  0  0  0  0
   -0.9502   -7.3864   34.3965 C   0  0  0  0  0  0  0  0  0  0  0  0
   -0.0566   -6.7226   35.1541 C   0  0  0  0  0  0  0  0  0  0  0  0
    1.0454   -5.9888   34.5455 C   0  0  0  0  0  0  0  0  0  0  0  0
    1.0857   -5.8383   33.2046 C   0  0  0  0  0  0  0  0  0  0  0  0
    0.0658   -6.4081   32.4575 N   0  0  0  0  0  0  0  0  0  0  0  0
    2.5435   -5.3434   32.4497 S   0  0  0  0  0  0  0  0  0  0  0  0
    0.3147    1.2957   27.5543 N   0  0  0  0  0  0  0  0  0  0  0  0
   -2.5159    4.7491   26.6687 H   0  0  0  0  0  0  0  0  0  0  0  0
   -2.2114    4.5304   25.0365 H   0  0  0  0  0  0  0  0  0  0  0  0
   -2.8115    1.4132   26.4888 H   0  0  0  0  0  0  0  0  0  0  0  0
   -2.0260   -0.9852   27.5894 H   0  0  0  0  0  0  0  0  0  0  0  0
    2.4123    0.3235   28.1813 H   0  0  0  0  0  0  0  0  0  0  0  0
    3.9251   -1.1444   29.4300 H   0  0  0  0  0  0  0  0  0  0  0  0
   -0.9080   -2.4050   28.9296 H   0  0  0  0  0  0  0  0  0  0  0  0
   -1.0565   -4.3614   30.7011 H   0  0  0  0  0  0  0  0  0  0  0  0
   -0.3147   -5.1895   29.3261 H   0  0  0  0  0  0  0  0  0  0  0  0
   -1.7346   -7.9922   34.8365 H   0  0  0  0  0  0  0  0  0  0  0  0
   -0.0962   -6.7813   36.2391 H   0  0  0  0  0  0  0  0  0  0  0  0
    1.8497   -5.6598   35.1992 H   0  0  0  0  0  0  0  0  0  0  0  0
  1  2  1  0
  2  3  2  0
  2  4  2  0
  2  5  1  0
  5  6  1  0
  6  7  2  0
  7  8  1  0
  8  9  1  0
  9 10  2  0
 10 11  1  0
 11 12  2  0
 12 13  1  0
 13 14  2  0
 14 15  1  0
 15 16  1  0
 16 17  2  0
 15 18  1  0
 18 19  1  0
 19 20  2  0
 20 21  1  0
 21 22  2  0
 22 23  1  0
 23 24  2  0
 24 25  1  0
 25 26  2  0
 26 27  1  0
 26 28  1  0
  8 29  1  0
 29  5  2  0
 17  9  1  0
 27 19  1  0
 16 12  1  0
 27 22  1  0
 28 14  1  0
  1 30  1  0
  1 31  1  0
  6 32  1  0
  7 33  1  0
 10 34  1  0
 11 35  1  0
 17 36  1  0
 18 37  1  0
 18 38  1  0
 23 39  1  0
 24 40  1  0
 25 41  1  0
M  END
>  <Energy>  (595) 
77.690574329962757

>  <compound_id>  (595) 
2708

>  <target_id>  (595) 
1

>  <reference_id>  (595) 
180

>  <inspiration_ids>  (595) 
[180, 152]

>  <energy_score>  (595) 
-33.00660236573958

>  <distance_score>  (595) 
0.9771713509200153

>  <path>  (595) 
/opt/xchem-fragalysis-2/maxwin/BulkDock/SCRATCH/505736/C2708-P180/C2708-P180.minimised.mol

>  <scratch_subdir>  (595) 
/opt/xchem-fragalysis-2/maxwin/BulkDock/SCRATCH/505736/C2708-P180

>  <fragmenstein_runtime>  (595) 
3.8849403858184814

>  <fragmenstein_outcome>  (595) 
acceptable

>  <fragmenstein_mode>  (595) 
expansion

>  <fragmenstein_error>  (595) 


$$$$
C2708-P152
     RDKit          3D

 41 46  0  0  0  0  0  0  0  0999 V2000
   -4.0026    2.0930   25.8496 N   0  0  0  0  0  0  0  0  0  0  0  0
   -2.3952    2.5583   25.9026 S   0  0  0  0  0  0  0  0  0  0  0  0
   -1.7796    2.1266   24.6655 O   0  0  0  0  0  0  0  0  0  0  0  0
   -2.3795    3.9449   26.3036 O   0  0  0  0  0  0  0  0  0  0  0  0
   -1.5815    1.7006   27.1941 C   0  0  0  0  0  0  0  0  0  0  0  0
   -1.0433    2.3703   28.3117 C   0  0  0  0  0  0  0  0  0  0  0  0
   -0.4242    1.3857   29.0298 C   0  0  0  0  0  0  0  0  0  0  0  0
   -0.6042    0.1999   28.3437 N   0  0  0  0  0  0  0  0  0  0  0  0
    0.2367   -0.9206   28.5602 C   0  0  0  0  0  0  0  0  0  0  0  0
    1.6106   -0.6468   28.4578 C   0  0  0  0  0  0  0  0  0  0  0  0
    2.5446   -1.4728   29.0643 C   0  0  0  0  0  0  0  0  0  0  0  0
    2.0691   -2.5360   29.8325 C   0  0  0  0  0  0  0  0  0  0  0  0
    2.7732   -3.2996   30.7118 N   0  0  0  0  0  0  0  0  0  0  0  0
    1.8711   -4.0296   31.3155 C   0  0  0  0  0  0  0  0  0  0  0  0
    0.7025   -4.0560   30.5978 N   0  0  0  0  0  0  0  0  0  0  0  0
    0.7145   -2.8855   29.8251 C   0  0  0  0  0  0  0  0  0  0  0  0
   -0.2558   -2.1082   29.1490 C   0  0  0  0  0  0  0  0  0  0  0  0
    0.1946   -5.3277   30.0932 C   0  0  0  0  0  0  0  0  0  0  0  0
   -0.3328   -6.2967   31.0852 C   0  0  0  0  0  0  0  0  0  0  0  0
   -1.1414   -7.2947   30.7670 N   0  0  0  0  0  0  0  0  0  0  0  0
   -1.5976   -7.8714   31.9158 N   0  0  0  0  0  0  0  0  0  0  0  0
   -1.0271   -7.2538   32.9229 C   0  0  0  0  0  0  0  0  0  0  0  0
   -1.1697   -7.4085   34.3251 C   0  0  0  0  0  0  0  0  0  0  0  0
   -0.3803   -6.7026   35.1503 C   0  0  0  0  0  0  0  0  0  0  0  0
    0.6597   -5.8393   34.6252 C   0  0  0  0  0  0  0  0  0  0  0  0
    0.7913   -5.6535   33.2921 C   0  0  0  0  0  0  0  0  0  0  0  0
   -0.1060   -6.3188   32.4460 N   0  0  0  0  0  0  0  0  0  0  0  0
    2.2197   -4.8523   32.7722 S   0  0  0  0  0  0  0  0  0  0  0  0
   -1.3797    0.3641   27.2520 N   0  0  0  0  0  0  0  0  0  0  0  0
   -4.5626    2.7612   26.3717 H   0  0  0  0  0  0  0  0  0  0  0  0
   -4.2772    2.0265   24.8638 H   0  0  0  0  0  0  0  0  0  0  0  0
   -1.0765    3.4299   28.5345 H   0  0  0  0  0  0  0  0  0  0  0  0
    0.1686    1.4210   29.9334 H   0  0  0  0  0  0  0  0  0  0  0  0
    1.9604    0.2592   27.9634 H   0  0  0  0  0  0  0  0  0  0  0  0
    3.6011   -1.2271   29.0553 H   0  0  0  0  0  0  0  0  0  0  0  0
   -1.3169   -2.3283   29.1993 H   0  0  0  0  0  0  0  0  0  0  0  0
   -0.5809   -5.0716   29.3700 H   0  0  0  0  0  0  0  0  0  0  0  0
    1.0245   -5.7945   29.5486 H   0  0  0  0  0  0  0  0  0  0  0  0
   -1.9191   -8.0978   34.6987 H   0  0  0  0  0  0  0  0  0  0  0  0
   -0.4717   -6.8008   36.2285 H   0  0  0  0  0  0  0  0  0  0  0  0
    1.3484   -5.4092   35.3496 H   0  0  0  0  0  0  0  0  0  0  0  0
  1  2  1  0
  2  3  2  0
  2  4  2  0
  2  5  1  0
  5  6  1  0
  6  7  2  0
  7  8  1  0
  8  9  1  0
  9 10  2  0
 10 11  1  0
 11 12  2  0
 12 13  1  0
 13 14  2  0
 14 15  1  0
 15 16  1  0
 16 17  2  0
 15 18  1  0
 18 19  1  0
 19 20  2  0
 20 21  1  0
 21 22  2  0
 22 23  1  0
 23 24  2  0
 24 25  1  0
 25 26  2  0
 26 27  1  0
 26 28  1  0
  8 29  1  0
 29  5  2  0
 17  9  1  0
 27 19  1  0
 16 12  1  0
 27 22  1  0
 28 14  1  0
  1 30  1  0
  1 31  1  0
  6 32  1  0
  7 33  1  0
 10 34  1  0
 11 35  1  0
 17 36  1  0
 18 37  1  0
 18 38  1  0
 23 39  1  0
 24 40  1  0
 25 41  1  0
M  END
>  <Energy>  (596) 
99.89038597651782

>  <compound_id>  (596) 
2708

>  <target_id>  (596) 
1

>  <reference_id>  (596) 
152

>  <inspiration_ids>  (596) 
[180, 152]

>  <energy_score>  (596) 
-10.80679071918513

>  <distance_score>  (596) 
0.8524664247023067

>  <path>  (596) 
/opt/xchem-fragalysis-2/maxwin/BulkDock/SCRATCH/505736/C2708-P152/C2708-P152.minimised.mol

>  <scratch_subdir>  (596) 
/opt/xchem-fragalysis-2/maxwin/BulkDock/SCRATCH/505736/C2708-P152

>  <fragmenstein_runtime>  (596) 
3.105727195739746

>  <fragmenstein_outcome>  (596) 
acceptable

>  <fragmenstein_mode>  (596) 
expansion

>  <fragmenstein_error>  (596) 


$$$$
C2720-P180
     RDKit          3D

 46 49  0  0  0  0  0  0  0  0999 V2000
    2.8132   -2.9186   27.7046 C   0  0  0  0  0  0  0  0  0  0  0  0
    1.6570   -3.5765   28.4884 C   0  0  0  0  0  0  0  0  0  0  0  0
    1.9479   -4.9638   28.5012 O   0  0  0  0  0  0  0  0  0  0  0  0
    0.4468   -3.3500   27.7619 N   0  0  0  0  0  0  0  0  0  0  0  0
   -0.8244   -4.0548   27.9458 C   0  0  0  0  0  0  0  0  0  0  0  0
   -1.3484   -4.7809   26.5171 C   0  0  0  0  0  0  0  0  0  0  0  0
   -1.2754   -5.2731   25.2978 C   0  0  0  0  0  0  0  0  0  0  0  0
    0.2123   -5.0156   23.4911 Br  0  0  0  0  0  0  0  0  0  0  0  0
    1.6488   -3.0918   29.9211 C   0  0  0  0  0  0  0  0  0  0  0  0
    0.5085   -2.5579   30.5537 C   0  0  0  0  0  0  0  0  0  0  0  0
    0.4165   -2.4861   31.9469 C   0  0  0  0  0  0  0  0  0  0  0  0
    1.4910   -2.9875   32.6832 C   0  0  0  0  0  0  0  0  0  0  0  0
    1.5387   -3.4001   33.9865 N   0  0  0  0  0  0  0  0  0  0  0  0
    2.6781   -4.0522   34.0645 C   0  0  0  0  0  0  0  0  0  0  0  0
    2.9536   -5.5018   34.9683 S   0  0  0  0  0  0  0  0  0  0  0  0
    1.3315   -6.1234   34.9180 C   0  0  0  0  0  0  0  0  0  0  0  0
    0.6785   -6.2831   36.0847 C   0  0  0  0  0  0  0  0  0  0  0  0
   -0.6502   -6.8543   36.0900 C   0  0  0  0  0  0  0  0  0  0  0  0
   -1.2472   -7.2742   34.9619 C   0  0  0  0  0  0  0  0  0  0  0  0
   -0.5900   -7.1003   33.7186 C   0  0  0  0  0  0  0  0  0  0  0  0
   -0.9378   -7.4052   32.4861 N   0  0  0  0  0  0  0  0  0  0  0  0
    0.0861   -7.0260   31.6567 N   0  0  0  0  0  0  0  0  0  0  0  0
    1.0295   -6.4991   32.4062 C   0  0  0  0  0  0  0  0  0  0  0  0
    0.6750   -6.5186   33.7317 N   0  0  0  0  0  0  0  0  0  0  0  0
    3.5203   -3.7010   33.0493 N   0  0  0  0  0  0  0  0  0  0  0  0
    4.9319   -3.9899   32.9214 C   0  0  0  0  0  0  0  0  0  0  0  0
    5.6269   -3.4727   34.0462 O   0  0  0  0  0  0  0  0  0  0  0  0
    2.6839   -3.2976   32.0416 C   0  0  0  0  0  0  0  0  0  0  0  0
    2.8154   -3.3286   30.6673 C   0  0  0  0  0  0  0  0  0  0  0  0
    2.6577   -1.8424   27.5681 H   0  0  0  0  0  0  0  0  0  0  0  0
    2.9446   -3.4037   26.7317 H   0  0  0  0  0  0  0  0  0  0  0  0
    3.7860   -3.0463   28.1912 H   0  0  0  0  0  0  0  0  0  0  0  0
    1.3757   -5.3105   27.7969 H   0  0  0  0  0  0  0  0  0  0  0  0
    0.2666   -2.3511   27.6541 H   0  0  0  0  0  0  0  0  0  0  0  0
   -0.7661   -4.7955   28.7492 H   0  0  0  0  0  0  0  0  0  0  0  0
   -1.5259   -3.2849   28.2800 H   0  0  0  0  0  0  0  0  0  0  0  0
   -0.3748   -2.2828   29.9851 H   0  0  0  0  0  0  0  0  0  0  0  0
   -0.5097   -2.2067   32.4367 H   0  0  0  0  0  0  0  0  0  0  0  0
    1.1108   -6.0103   37.0438 H   0  0  0  0  0  0  0  0  0  0  0  0
   -1.1266   -6.9450   37.0562 H   0  0  0  0  0  0  0  0  0  0  0  0
   -2.2169   -7.7533   34.9703 H   0  0  0  0  0  0  0  0  0  0  0  0
    1.9645   -6.1079   32.0417 H   0  0  0  0  0  0  0  0  0  0  0  0
    5.3256   -3.5161   32.0182 H   0  0  0  0  0  0  0  0  0  0  0  0
    5.0734   -5.0713   32.8612 H   0  0  0  0  0  0  0  0  0  0  0  0
    5.4464   -2.5166   34.0860 H   0  0  0  0  0  0  0  0  0  0  0  0
    3.7096   -3.7343   30.2050 H   0  0  0  0  0  0  0  0  0  0  0  0
  1  2  1  0
  2  3  1  0
  2  4  1  0
  4  5  1  0
  5  6  1  0
  6  7  3  0
  7  8  1  0
  2  9  1  0
  9 10  2  0
 10 11  1  0
 11 12  2  0
 12 13  1  0
 13 14  2  0
 14 15  1  0
 15 16  1  0
 16 17  2  0
 17 18  1  0
 18 19  2  0
 19 20  1  0
 20 21  2  0
 21 22  1  0
 22 23  2  0
 23 24  1  0
 14 25  1  0
 25 26  1  0
 26 27  1  0
 25 28  1  0
 28 29  2  0
 29  9  1  0
 28 12  1  0
 24 16  1  0
 24 20  1  0
  1 30  1  0
  1 31  1  0
  1 32  1  0
  3 33  1  0
  4 34  1  0
  5 35  1  0
  5 36  1  0
 10 37  1  0
 11 38  1  0
 17 39  1  0
 18 40  1  0
 19 41  1  0
 23 42  1  0
 26 43  1  0
 26 44  1  0
 27 45  1  0
 29 46  1  0
M  END
>  <Energy>  (597) 
83.304130337820268

>  <compound_id>  (597) 
2720

>  <target_id>  (597) 
1

>  <reference_id>  (597) 
180

>  <inspiration_ids>  (597) 
[180, 177]

>  <energy_score>  (597) 
29.048735537224587

>  <distance_score>  (597) 
2.404152984028979

>  <path>  (597) 
/opt/xchem-fragalysis-2/maxwin/BulkDock/SCRATCH/505736/C2720-P180/C2720-P180.minimised.mol

>  <scratch_subdir>  (597) 
/opt/xchem-fragalysis-2/maxwin/BulkDock/SCRATCH/505736/C2720-P180

>  <fragmenstein_runtime>  (597) 
8.279254913330078

>  <fragmenstein_outcome>  (597) 
too moved

>  <fragmenstein_mode>  (597) 
expansion

>  <fragmenstein_error>  (597) 


$$$$
C2720-P177
     RDKit          3D

 46 49  0  0  0  0  0  0  0  0999 V2000
    3.3516   -2.2026   25.7498 C   0  0  0  0  0  0  0  0  0  0  0  0
    3.0716   -2.9555   27.0407 C   0  0  0  0  0  0  0  0  0  0  0  0
    4.3036   -3.4798   27.5303 O   0  0  0  0  0  0  0  0  0  0  0  0
    2.2894   -4.1345   26.7200 N   0  0  0  0  0  0  0  0  0  0  0  0
    1.6450   -4.8319   27.8342 C   0  0  0  0  0  0  0  0  0  0  0  0
    0.2239   -4.5901   27.6383 C   0  0  0  0  0  0  0  0  0  0  0  0
   -0.6298   -4.0922   26.9624 C   0  0  0  0  0  0  0  0  0  0  0  0
   -1.1990   -3.2701   25.3355 Br  0  0  0  0  0  0  0  0  0  0  0  0
    2.4406   -2.0309   28.1166 C   0  0  0  0  0  0  0  0  0  0  0  0
    1.0705   -1.7132   28.1502 C   0  0  0  0  0  0  0  0  0  0  0  0
    0.3352   -1.9158   29.3399 C   0  0  0  0  0  0  0  0  0  0  0  0
    1.0644   -2.4581   30.4065 C   0  0  0  0  0  0  0  0  0  0  0  0
    0.7004   -3.3108   31.4369 N   0  0  0  0  0  0  0  0  0  0  0  0
    1.8514   -3.6671   31.9732 C   0  0  0  0  0  0  0  0  0  0  0  0
    2.2761   -5.1287   32.7864 S   0  0  0  0  0  0  0  0  0  0  0  0
    0.7811   -5.7078   33.3897 C   0  0  0  0  0  0  0  0  0  0  0  0
    0.5934   -5.7256   34.7257 C   0  0  0  0  0  0  0  0  0  0  0  0
   -0.5136   -6.4755   35.2865 C   0  0  0  0  0  0  0  0  0  0  0  0
   -1.3139   -7.2146   34.4999 C   0  0  0  0  0  0  0  0  0  0  0  0
   -1.1317   -7.2026   33.0922 C   0  0  0  0  0  0  0  0  0  0  0  0
   -1.7361   -7.8385   32.1122 N   0  0  0  0  0  0  0  0  0  0  0  0
   -1.1800   -7.4247   30.9296 N   0  0  0  0  0  0  0  0  0  0  0  0
   -0.2416   -6.5524   31.2218 C   0  0  0  0  0  0  0  0  0  0  0  0
   -0.1203   -6.4083   32.5788 N   0  0  0  0  0  0  0  0  0  0  0  0
    2.8643   -2.8358   31.5753 N   0  0  0  0  0  0  0  0  0  0  0  0
    4.2169   -2.7635   32.0911 C   0  0  0  0  0  0  0  0  0  0  0  0
    4.1770   -2.4414   33.4763 O   0  0  0  0  0  0  0  0  0  0  0  0
    2.4452   -2.2912   30.3941 C   0  0  0  0  0  0  0  0  0  0  0  0
    3.1706   -1.8657   29.2907 C   0  0  0  0  0  0  0  0  0  0  0  0
    2.4172   -1.9513   25.2465 H   0  0  0  0  0  0  0  0  0  0  0  0
    3.9564   -2.7913   25.0502 H   0  0  0  0  0  0  0  0  0  0  0  0
    3.9084   -1.2784   25.9426 H   0  0  0  0  0  0  0  0  0  0  0  0
    4.8342   -3.7204   26.7529 H   0  0  0  0  0  0  0  0  0  0  0  0
    2.8804   -4.7888   26.2172 H   0  0  0  0  0  0  0  0  0  0  0  0
    2.0118   -4.5515   28.8208 H   0  0  0  0  0  0  0  0  0  0  0  0
    1.8603   -5.8992   27.7676 H   0  0  0  0  0  0  0  0  0  0  0  0
    0.5227   -1.5973   27.2196 H   0  0  0  0  0  0  0  0  0  0  0  0
   -0.7488   -1.9440   29.3181 H   0  0  0  0  0  0  0  0  0  0  0  0
    1.2901   -5.2692   35.4237 H   0  0  0  0  0  0  0  0  0  0  0  0
   -0.6370   -6.4735   36.3651 H   0  0  0  0  0  0  0  0  0  0  0  0
   -2.0965   -7.8401   34.9081 H   0  0  0  0  0  0  0  0  0  0  0  0
    0.3549   -6.0025   30.5109 H   0  0  0  0  0  0  0  0  0  0  0  0
    4.7734   -1.9783   31.5728 H   0  0  0  0  0  0  0  0  0  0  0  0
    4.7162   -3.7242   31.9385 H   0  0  0  0  0  0  0  0  0  0  0  0
    3.7314   -1.5790   33.5518 H   0  0  0  0  0  0  0  0  0  0  0  0
    4.2545   -1.9456   29.2871 H   0  0  0  0  0  0  0  0  0  0  0  0
  1  2  1  0
  2  3  1  0
  2  4  1  0
  4  5  1  0
  5  6  1  0
  6  7  3  0
  7  8  1  0
  2  9  1  0
  9 10  2  0
 10 11  1  0
 11 12  2  0
 12 13  1  0
 13 14  2  0
 14 15  1  0
 15 16  1  0
 16 17  2  0
 17 18  1  0
 18 19  2  0
 19 20  1  0
 20 21  2  0
 21 22  1  0
 22 23  2  0
 23 24  1  0
 14 25  1  0
 25 26  1  0
 26 27  1  0
 25 28  1  0
 28 29  2  0
 29  9  1  0
 28 12  1  0
 24 16  1  0
 24 20  1  0
  1 30  1  0
  1 31  1  0
  1 32  1  0
  3 33  1  0
  4 34  1  0
  5 35  1  0
  5 36  1  0
 10 37  1  0
 11 38  1  0
 17 39  1  0
 18 40  1  0
 19 41  1  0
 23 42  1  0
 26 43  1  0
 26 44  1  0
 27 45  1  0
 29 46  1  0
M  END
>  <Energy>  (598) 
62.841783408679383

>  <compound_id>  (598) 
2720

>  <target_id>  (598) 
1

>  <reference_id>  (598) 
177

>  <inspiration_ids>  (598) 
[180, 177]

>  <energy_score>  (598) 
18.403580661448473

>  <distance_score>  (598) 
1.6490972068299274

>  <path>  (598) 
/opt/xchem-fragalysis-2/maxwin/BulkDock/SCRATCH/505736/C2720-P177/C2720-P177.minimised.mol

>  <scratch_subdir>  (598) 
/opt/xchem-fragalysis-2/maxwin/BulkDock/SCRATCH/505736/C2720-P177

>  <fragmenstein_runtime>  (598) 
8.947303295135498

>  <fragmenstein_outcome>  (598) 
too moved

>  <fragmenstein_mode>  (598) 
expansion

>  <fragmenstein_error>  (598) 


$$$$
C2722-P180
     RDKit          3D

 52 57  0  0  0  0  0  0  0  0999 V2000
    1.4964   -0.7599   35.1862 C   0  0  0  0  0  0  0  0  0  0  0  0
    1.0620   -1.0345   33.8564 O   0  0  0  0  0  0  0  0  0  0  0  0
    0.3052   -2.1691   33.7348 C   0  0  0  0  0  0  0  0  0  0  0  0
    0.0237   -2.9048   34.6765 O   0  0  0  0  0  0  0  0  0  0  0  0
   -0.1065   -2.4355   32.2427 C   0  0  0  0  0  0  0  0  0  0  0  0
   -1.3736   -3.2777   32.1563 C   0  0  0  0  0  0  0  0  0  0  0  0
   -2.4908   -2.2610   32.3550 C   0  0  0  0  0  0  0  0  0  0  0  0
   -1.9373   -0.9351   31.8516 C   0  0  0  0  0  0  0  0  0  0  0  0
   -0.5191   -1.1323   31.5844 N   0  0  0  0  0  0  0  0  0  0  0  0
   -0.1922   -1.3456   30.1687 C   0  0  0  0  0  0  0  0  0  0  0  0
    0.0794   -0.2041   29.1792 C   0  0  0  0  0  0  0  0  0  0  0  0
   -1.1119    0.2513   28.6967 F   0  0  0  0  0  0  0  0  0  0  0  0
    0.9225   -0.6860   27.9656 C   0  0  0  0  0  0  0  0  0  0  0  0
    2.0656   -1.7131   28.2487 C   0  0  0  0  0  0  0  0  0  0  0  0
    1.5009   -2.7720   29.1830 C   0  0  0  0  0  0  0  0  0  0  0  0
    2.2227   -3.8826   29.8038 N   0  0  0  0  0  0  0  0  0  0  0  0
    1.3378   -4.1760   30.9692 C   0  0  0  0  0  0  0  0  0  0  0  0
    2.2545   -5.2595   32.0872 S   0  0  0  0  0  0  0  0  0  0  0  0
    0.9790   -6.0546   32.9425 C   0  0  0  0  0  0  0  0  0  0  0  0
    0.8624   -5.9010   34.2769 C   0  0  0  0  0  0  0  0  0  0  0  0
   -0.2115   -6.5736   34.9908 C   0  0  0  0  0  0  0  0  0  0  0  0
   -1.0995   -7.3513   34.3461 C   0  0  0  0  0  0  0  0  0  0  0  0
   -0.9889   -7.5249   32.9410 C   0  0  0  0  0  0  0  0  0  0  0  0
   -1.7069   -8.1927   32.0645 N   0  0  0  0  0  0  0  0  0  0  0  0
   -1.1224   -8.0496   30.8324 N   0  0  0  0  0  0  0  0  0  0  0  0
   -0.0565   -7.3010   30.9876 C   0  0  0  0  0  0  0  0  0  0  0  0
    0.0608   -6.8925   32.2916 N   0  0  0  0  0  0  0  0  0  0  0  0
    1.0867   -2.8780   31.5230 N   0  0  0  0  0  0  0  0  0  0  0  0
    1.1522   -1.9724   30.4023 C   0  0  0  0  0  0  0  0  0  0  0  0
    2.0844    0.1618   35.1676 H   0  0  0  0  0  0  0  0  0  0  0  0
    2.1336   -1.5692   35.5564 H   0  0  0  0  0  0  0  0  0  0  0  0
    0.6373   -0.6086   35.8473 H   0  0  0  0  0  0  0  0  0  0  0  0
   -1.4948   -3.7387   31.1700 H   0  0  0  0  0  0  0  0  0  0  0  0
   -1.4209   -4.0750   32.9025 H   0  0  0  0  0  0  0  0  0  0  0  0
   -2.7345   -2.1783   33.4206 H   0  0  0  0  0  0  0  0  0  0  0  0
   -3.4012   -2.5550   31.8257 H   0  0  0  0  0  0  0  0  0  0  0  0
   -2.0556   -0.1745   32.6323 H   0  0  0  0  0  0  0  0  0  0  0  0
   -2.4659   -0.5548   30.9766 H   0  0  0  0  0  0  0  0  0  0  0  0
   -0.9175   -2.0360   29.7145 H   0  0  0  0  0  0  0  0  0  0  0  0
    0.5844    0.6329   29.6742 H   0  0  0  0  0  0  0  0  0  0  0  0
    1.3237    0.1807   27.4296 H   0  0  0  0  0  0  0  0  0  0  0  0
    0.2016   -1.1575   27.2961 H   0  0  0  0  0  0  0  0  0  0  0  0
    2.4322   -2.1687   27.3286 H   0  0  0  0  0  0  0  0  0  0  0  0
    2.9224   -1.1934   28.6957 H   0  0  0  0  0  0  0  0  0  0  0  0
    0.6271   -3.2207   28.6871 H   0  0  0  0  0  0  0  0  0  0  0  0
    3.0857   -3.5300   30.2192 H   0  0  0  0  0  0  0  0  0  0  0  0
    0.4375   -4.6630   30.5847 H   0  0  0  0  0  0  0  0  0  0  0  0
    1.5283   -5.2674   34.8575 H   0  0  0  0  0  0  0  0  0  0  0  0
   -0.2790   -6.4244   36.0654 H   0  0  0  0  0  0  0  0  0  0  0  0
   -1.8920   -7.8701   34.8734 H   0  0  0  0  0  0  0  0  0  0  0  0
    0.6428   -7.0340   30.2100 H   0  0  0  0  0  0  0  0  0  0  0  0
    1.9211   -1.2254   30.6612 H   0  0  0  0  0  0  0  0  0  0  0  0
  1  2  1  0
  2  3  1  0
  3  4  2  0
  3  5  1  0
  5  6  1  0
  6  7  1  0
  7  8  1  0
  8  9  1  0
  9 10  1  0
 10 11  1  0
 11 12  1  0
 11 13  1  0
 13 14  1  0
 14 15  1  0
 15 16  1  0
 16 17  1  0
 17 18  1  0
 18 19  1  0
 19 20  2  0
 20 21  1  0
 21 22  2  0
 22 23  1  0
 23 24  2  0
 24 25  1  0
 25 26  2  0
 26 27  1  0
 17 28  1  0
 28 29  1  0
  9  5  1  0
 29 10  1  0
 28  5  1  0
 29 15  1  0
 27 19  1  0
 27 23  1  0
  1 30  1  0
  1 31  1  0
  1 32  1  0
  6 33  1  0
  6 34  1  0
  7 35  1  0
  7 36  1  0
  8 37  1  0
  8 38  1  0
 10 39  1  0
 11 40  1  0
 13 41  1  0
 13 42  1  0
 14 43  1  0
 14 44  1  0
 15 45  1  0
 16 46  1  0
 17 47  1  0
 20 48  1  0
 21 49  1  0
 22 50  1  0
 26 51  1  0
 29 52  1  0
M  END
>  <Energy>  (599) 
102.28805893352852

>  <compound_id>  (599) 
2722

>  <target_id>  (599) 
1

>  <reference_id>  (599) 
180

>  <inspiration_ids>  (599) 
[180, 186]

>  <energy_score>  (599) 
-77.79170835635955

>  <distance_score>  (599) 
2.294208406192326

>  <path>  (599) 
/opt/xchem-fragalysis-2/maxwin/BulkDock/SCRATCH/505736/C2722-P180/C2722-P180.minimised.mol

>  <scratch_subdir>  (599) 
/opt/xchem-fragalysis-2/maxwin/BulkDock/SCRATCH/505736/C2722-P180

>  <fragmenstein_runtime>  (599) 
4.430576324462891

>  <fragmenstein_outcome>  (599) 
too moved

>  <fragmenstein_mode>  (599) 
expansion

>  <fragmenstein_error>  (599) 


$$$$
C2722-P186
     RDKit          3D

 52 57  0  0  0  0  0  0  0  0999 V2000
    1.2155    0.7636   33.9174 C   0  0  0  0  0  0  0  0  0  0  0  0
    0.7090   -0.0493   32.8590 O   0  0  0  0  0  0  0  0  0  0  0  0
    0.4117   -1.3293   33.2254 C   0  0  0  0  0  0  0  0  0  0  0  0
    0.5423   -1.7479   34.3745 O   0  0  0  0  0  0  0  0  0  0  0  0
   -0.0649   -2.2368   32.0192 C   0  0  0  0  0  0  0  0  0  0  0  0
   -1.3062   -2.9878   32.4986 C   0  0  0  0  0  0  0  0  0  0  0  0
   -2.4221   -1.9171   32.3653 C   0  0  0  0  0  0  0  0  0  0  0  0
   -1.8790   -0.8700   31.3777 C   0  0  0  0  0  0  0  0  0  0  0  0
   -0.7313   -1.5710   30.8775 N   0  0  0  0  0  0  0  0  0  0  0  0
    0.2857   -0.9637   30.0495 C   0  0  0  0  0  0  0  0  0  0  0  0
    0.0168   -0.5984   28.5725 C   0  0  0  0  0  0  0  0  0  0  0  0
   -1.2126   -0.0210   28.4568 F   0  0  0  0  0  0  0  0  0  0  0  0
    0.1264   -1.7236   27.5407 C   0  0  0  0  0  0  0  0  0  0  0  0
    1.2763   -2.7077   27.7830 C   0  0  0  0  0  0  0  0  0  0  0  0
    1.0206   -3.2236   29.1700 C   0  0  0  0  0  0  0  0  0  0  0  0
    1.7672   -4.3105   29.7953 N   0  0  0  0  0  0  0  0  0  0  0  0
    1.1745   -4.2079   31.1384 C   0  0  0  0  0  0  0  0  0  0  0  0
    2.1423   -5.1702   32.3019 S   0  0  0  0  0  0  0  0  0  0  0  0
    0.8856   -6.0321   33.1219 C   0  0  0  0  0  0  0  0  0  0  0  0
    0.7449   -5.8901   34.4554 C   0  0  0  0  0  0  0  0  0  0  0  0
   -0.3084   -6.6123   35.1484 C   0  0  0  0  0  0  0  0  0  0  0  0
   -1.1621   -7.4100   34.4823 C   0  0  0  0  0  0  0  0  0  0  0  0
   -1.0400   -7.5553   33.0752 C   0  0  0  0  0  0  0  0  0  0  0  0
   -1.7350   -8.2320   32.1873 N   0  0  0  0  0  0  0  0  0  0  0  0
   -1.1645   -8.0385   30.9561 N   0  0  0  0  0  0  0  0  0  0  0  0
   -0.1254   -7.2544   31.1253 C   0  0  0  0  0  0  0  0  0  0  0  0
   -0.0067   -6.8818   32.4424 N   0  0  0  0  0  0  0  0  0  0  0  0
    1.1621   -2.7964   31.4522 N   0  0  0  0  0  0  0  0  0  0  0  0
    1.3022   -2.0970   30.1520 C   0  0  0  0  0  0  0  0  0  0  0  0
    0.4680    0.8700   34.7097 H   0  0  0  0  0  0  0  0  0  0  0  0
    1.4296    1.7552   33.5091 H   0  0  0  0  0  0  0  0  0  0  0  0
    2.1458    0.3441   34.3129 H   0  0  0  0  0  0  0  0  0  0  0  0
   -1.5650   -3.8301   31.8483 H   0  0  0  0  0  0  0  0  0  0  0  0
   -1.2364   -3.3679   33.5219 H   0  0  0  0  0  0  0  0  0  0  0  0
   -2.6309   -1.4535   33.3358 H   0  0  0  0  0  0  0  0  0  0  0  0
   -3.3459   -2.3795   32.0018 H   0  0  0  0  0  0  0  0  0  0  0  0
   -1.6321    0.0618   31.8968 H   0  0  0  0  0  0  0  0  0  0  0  0
   -2.5909   -0.6277   30.5922 H   0  0  0  0  0  0  0  0  0  0  0  0
    0.6671   -0.0595   30.5342 H   0  0  0  0  0  0  0  0  0  0  0  0
    0.7461    0.1716   28.2907 H   0  0  0  0  0  0  0  0  0  0  0  0
    0.2548   -1.2940   26.5573 H   0  0  0  0  0  0  0  0  0  0  0  0
   -0.8299   -2.2612   27.4985 H   0  0  0  0  0  0  0  0  0  0  0  0
    1.2381   -3.5155   27.0452 H   0  0  0  0  0  0  0  0  0  0  0  0
    2.2496   -2.2134   27.6898 H   0  0  0  0  0  0  0  0  0  0  0  0
   -0.0366   -3.5402   29.1798 H   0  0  0  0  0  0  0  0  0  0  0  0
    2.7448   -4.0437   29.8991 H   0  0  0  0  0  0  0  0  0  0  0  0
    0.1667   -4.6182   31.0625 H   0  0  0  0  0  0  0  0  0  0  0  0
    1.3857   -5.2418   35.0483 H   0  0  0  0  0  0  0  0  0  0  0  0
   -0.3839   -6.4941   36.2262 H   0  0  0  0  0  0  0  0  0  0  0  0
   -1.9354   -7.9721   34.9918 H   0  0  0  0  0  0  0  0  0  0  0  0
    0.5472   -6.9315   30.3445 H   0  0  0  0  0  0  0  0  0  0  0  0
    2.3264   -1.7105   30.0574 H   0  0  0  0  0  0  0  0  0  0  0  0
  1  2  1  0
  2  3  1  0
  3  4  2  0
  3  5  1  0
  5  6  1  0
  6  7  1  0
  7  8  1  0
  8  9  1  0
  9 10  1  0
 10 11  1  0
 11 12  1  0
 11 13  1  0
 13 14  1  0
 14 15  1  0
 15 16  1  0
 16 17  1  0
 17 18  1  0
 18 19  1  0
 19 20  2  0
 20 21  1  0
 21 22  2  0
 22 23  1  0
 23 24  2  0
 24 25  1  0
 25 26  2  0
 26 27  1  0
 17 28  1  0
 28 29  1  0
  9  5  1  0
 29 10  1  0
 28  5  1  0
 29 15  1  0
 27 19  1  0
 27 23  1  0
  1 30  1  0
  1 31  1  0
  1 32  1  0
  6 33  1  0
  6 34  1  0
  7 35  1  0
  7 36  1  0
  8 37  1  0
  8 38  1  0
 10 39  1  0
 11 40  1  0
 13 41  1  0
 13 42  1  0
 14 43  1  0
 14 44  1  0
 15 45  1  0
 16 46  1  0
 17 47  1  0
 20 48  1  0
 21 49  1  0
 22 50  1  0
 26 51  1  0
 29 52  1  0
M  END
>  <Energy>  (600) 
105.26692150121848

>  <compound_id>  (600) 
2722

>  <target_id>  (600) 
1

>  <reference_id>  (600) 
186

>  <inspiration_ids>  (600) 
[180, 186]

>  <energy_score>  (600) 
-74.81284578867098

>  <distance_score>  (600) 
1.9388355745340884

>  <path>  (600) 
/opt/xchem-fragalysis-2/maxwin/BulkDock/SCRATCH/505736/C2722-P186/C2722-P186.minimised.mol

>  <scratch_subdir>  (600) 
/opt/xchem-fragalysis-2/maxwin/BulkDock/SCRATCH/505736/C2722-P186

>  <fragmenstein_runtime>  (600) 
3.4016904830932617

>  <fragmenstein_outcome>  (600) 
too moved

>  <fragmenstein_mode>  (600) 
expansion

>  <fragmenstein_error>  (600) 


$$$$
C2725-P180
     RDKit          3D

 31 31  0  0  0  0  0  0  0  0999 V2000
   -1.7749   -2.4431   33.0091 C   0  0  0  0  0  0  0  0  0  0  0  0
   -2.0027   -2.7374   31.5463 C   0  0  0  0  0  0  0  0  0  0  0  0
   -1.0063   -3.6083   30.9569 N   0  0  0  0  0  0  0  0  0  0  0  0
   -0.7051   -4.8766   31.5595 C   0  0  0  0  0  0  0  0  0  0  0  0
    0.6646   -5.6409   30.6724 S   0  0  0  0  0  0  0  0  0  0  0  0
    1.9845   -4.8669   31.5981 C   0  0  0  0  0  0  0  0  0  0  0  0
    1.9131   -3.4106   31.6481 N   0  0  0  0  0  0  0  0  0  0  0  0
    1.9221   -2.6223   30.4606 C   0  0  0  0  0  0  0  0  0  0  0  0
    0.9619   -1.5933   30.3096 C   0  0  0  0  0  0  0  0  0  0  0  0
    0.8277   -0.8670   29.1282 C   0  0  0  0  0  0  0  0  0  0  0  0
   -0.2032   -0.0222   28.9626 F   0  0  0  0  0  0  0  0  0  0  0  0
    1.7620   -1.0309   28.1317 C   0  0  0  0  0  0  0  0  0  0  0  0
    1.7392   -0.2436   27.0518 F   0  0  0  0  0  0  0  0  0  0  0  0
    2.7679   -1.9785   28.2666 C   0  0  0  0  0  0  0  0  0  0  0  0
    2.8738   -2.7478   29.4348 C   0  0  0  0  0  0  0  0  0  0  0  0
    3.8761   -3.7368   29.4769 N   0  0  0  0  0  0  0  0  0  0  0  0
   -0.8126   -1.9467   33.1713 H   0  0  0  0  0  0  0  0  0  0  0  0
   -2.5562   -1.7729   33.3830 H   0  0  0  0  0  0  0  0  0  0  0  0
   -1.7901   -3.3440   33.6250 H   0  0  0  0  0  0  0  0  0  0  0  0
   -3.0115   -3.1193   31.3995 H   0  0  0  0  0  0  0  0  0  0  0  0
   -1.9829   -1.7845   31.0060 H   0  0  0  0  0  0  0  0  0  0  0  0
   -1.1559   -3.7112   29.9502 H   0  0  0  0  0  0  0  0  0  0  0  0
   -0.4420   -4.7928   32.6180 H   0  0  0  0  0  0  0  0  0  0  0  0
   -1.5343   -5.5747   31.5106 H   0  0  0  0  0  0  0  0  0  0  0  0
    2.9436   -5.2276   31.2263 H   0  0  0  0  0  0  0  0  0  0  0  0
    1.9350   -5.2383   32.6283 H   0  0  0  0  0  0  0  0  0  0  0  0
    1.0731   -3.1443   32.1620 H   0  0  0  0  0  0  0  0  0  0  0  0
    0.2701   -1.3632   31.1088 H   0  0  0  0  0  0  0  0  0  0  0  0
    3.4982   -2.0882   27.4707 H   0  0  0  0  0  0  0  0  0  0  0  0
    3.4991   -4.6117   29.1249 H   0  0  0  0  0  0  0  0  0  0  0  0
    4.1803   -3.8410   30.4433 H   0  0  0  0  0  0  0  0  0  0  0  0
  1  2  1  0
  2  3  1  0
  3  4  1  0
  4  5  1  0
  5  6  1  0
  6  7  1  0
  7  8  1  0
  8  9  2  0
  9 10  1  0
 10 11  1  0
 10 12  2  0
 12 13  1  0
 12 14  1  0
 14 15  2  0
 15 16  1  0
 15  8  1  0
  1 17  1  0
  1 18  1  0
  1 19  1  0
  2 20  1  0
  2 21  1  0
  3 22  1  0
  4 23  1  0
  4 24  1  0
  6 25  1  0
  6 26  1  0
  7 27  1  0
  9 28  1  0
 14 29  1  0
 16 30  1  0
 16 31  1  0
M  END
>  <Energy>  (601) 
-6.2957144285940929

>  <compound_id>  (601) 
2725

>  <target_id>  (601) 
1

>  <reference_id>  (601) 
180

>  <inspiration_ids>  (601) 
[180, 189]

>  <energy_score>  (601) 
-4.463951439755547

>  <distance_score>  (601) 
2.3704657545131864

>  <path>  (601) 
/opt/xchem-fragalysis-2/maxwin/BulkDock/SCRATCH/505736/C2725-P180/C2725-P180.minimised.mol

>  <scratch_subdir>  (601) 
/opt/xchem-fragalysis-2/maxwin/BulkDock/SCRATCH/505736/C2725-P180

>  <fragmenstein_runtime>  (601) 
7.428332328796387

>  <fragmenstein_outcome>  (601) 
too moved

>  <fragmenstein_mode>  (601) 
expansion

>  <fragmenstein_error>  (601) 


$$$$
C2725-P189
     RDKit          3D

 31 31  0  0  0  0  0  0  0  0999 V2000
   -2.4861   -2.2014   32.3799 C   0  0  0  0  0  0  0  0  0  0  0  0
   -1.4679   -3.0149   31.6089 C   0  0  0  0  0  0  0  0  0  0  0  0
   -1.4168   -4.3529   32.1605 N   0  0  0  0  0  0  0  0  0  0  0  0
   -0.7198   -5.3544   31.3875 C   0  0  0  0  0  0  0  0  0  0  0  0
    0.8781   -5.8068   32.0483 S   0  0  0  0  0  0  0  0  0  0  0  0
    1.7984   -4.4773   31.3129 C   0  0  0  0  0  0  0  0  0  0  0  0
    1.5987   -4.5366   29.8691 N   0  0  0  0  0  0  0  0  0  0  0  0
    1.5021   -3.2241   29.3080 C   0  0  0  0  0  0  0  0  0  0  0  0
    0.2584   -2.7487   28.8578 C   0  0  0  0  0  0  0  0  0  0  0  0
    0.0995   -1.4097   28.4996 C   0  0  0  0  0  0  0  0  0  0  0  0
   -1.1066   -0.9444   28.1430 F   0  0  0  0  0  0  0  0  0  0  0  0
    1.1829   -0.5499   28.5440 C   0  0  0  0  0  0  0  0  0  0  0  0
    1.0377    0.7428   28.2217 F   0  0  0  0  0  0  0  0  0  0  0  0
    2.4318   -1.0124   28.9465 C   0  0  0  0  0  0  0  0  0  0  0  0
    2.6137   -2.3555   29.2953 C   0  0  0  0  0  0  0  0  0  0  0  0
    3.8429   -2.7695   29.8397 N   0  0  0  0  0  0  0  0  0  0  0  0
   -2.5386   -1.1847   31.9761 H   0  0  0  0  0  0  0  0  0  0  0  0
   -3.4884   -2.6369   32.3079 H   0  0  0  0  0  0  0  0  0  0  0  0
   -2.2193   -2.1265   33.4396 H   0  0  0  0  0  0  0  0  0  0  0  0
   -1.8129   -3.0476   30.5736 H   0  0  0  0  0  0  0  0  0  0  0  0
   -0.4954   -2.5208   31.6585 H   0  0  0  0  0  0  0  0  0  0  0  0
   -1.1271   -4.3699   33.1376 H   0  0  0  0  0  0  0  0  0  0  0  0
   -1.3044   -6.2759   31.4777 H   0  0  0  0  0  0  0  0  0  0  0  0
   -0.6947   -5.1460   30.3183 H   0  0  0  0  0  0  0  0  0  0  0  0
    2.8558   -4.6268   31.5551 H   0  0  0  0  0  0  0  0  0  0  0  0
    1.4936   -3.5288   31.7673 H   0  0  0  0  0  0  0  0  0  0  0  0
    2.4184   -4.9777   29.4658 H   0  0  0  0  0  0  0  0  0  0  0  0
   -0.6016   -3.4073   28.7911 H   0  0  0  0  0  0  0  0  0  0  0  0
    3.2524   -0.3035   28.9944 H   0  0  0  0  0  0  0  0  0  0  0  0
    4.6180   -2.1657   29.5728 H   0  0  0  0  0  0  0  0  0  0  0  0
    4.0614   -3.7409   29.6586 H   0  0  0  0  0  0  0  0  0  0  0  0
  1  2  1  0
  2  3  1  0
  3  4  1  0
  4  5  1  0
  5  6  1  0
  6  7  1  0
  7  8  1  0
  8  9  2  0
  9 10  1  0
 10 11  1  0
 10 12  2  0
 12 13  1  0
 12 14  1  0
 14 15  2  0
 15 16  1  0
 15  8  1  0
  1 17  1  0
  1 18  1  0
  1 19  1  0
  2 20  1  0
  2 21  1  0
  3 22  1  0
  4 23  1  0
  4 24  1  0
  6 25  1  0
  6 26  1  0
  7 27  1  0
  9 28  1  0
 14 29  1  0
 16 30  1  0
 16 31  1  0
M  END
>  <Energy>  (602) 
-15.138723196731478

>  <compound_id>  (602) 
2725

>  <target_id>  (602) 
1

>  <reference_id>  (602) 
189

>  <inspiration_ids>  (602) 
[180, 189]

>  <energy_score>  (602) 
-13.306960207892764

>  <distance_score>  (602) 
2.352025252548

>  <path>  (602) 
/opt/xchem-fragalysis-2/maxwin/BulkDock/SCRATCH/505736/C2725-P189/C2725-P189.minimised.mol

>  <scratch_subdir>  (602) 
/opt/xchem-fragalysis-2/maxwin/BulkDock/SCRATCH/505736/C2725-P189

>  <fragmenstein_runtime>  (602) 
7.672666788101196

>  <fragmenstein_outcome>  (602) 
too moved

>  <fragmenstein_mode>  (602) 
expansion

>  <fragmenstein_error>  (602) 


$$$$
C2726-P180
     RDKit          3D

 53 57  0  0  0  0  0  0  0  0999 V2000
   -0.8604    1.1295   28.8292 C   0  0  0  0  0  0  0  0  0  0  0  0
    0.2623    0.9593   29.7562 N   0  0  0  0  0  0  0  0  0  0  0  0
   -0.2654    0.7663   31.0676 N   0  0  0  0  0  0  0  0  0  0  0  0
   -0.2407   -0.5612   31.5247 C   0  0  0  0  0  0  0  0  0  0  0  0
   -1.5726   -1.2130   31.8943 C   0  0  0  0  0  0  0  0  0  0  0  0
   -1.9991   -2.8138   32.6334 C   0  0  0  0  0  0  0  0  0  0  0  0
   -1.0957   -3.8285   33.1971 C   0  0  0  0  0  0  0  0  0  0  0  0
   -1.0810   -4.5888   34.6399 C   0  0  0  0  0  0  0  0  0  0  0  0
    0.4352   -5.0776   35.3959 C   0  0  0  0  0  0  0  0  0  0  0  0
    1.8112   -4.9205   34.4826 C   0  0  0  0  0  0  0  0  0  0  0  0
    2.2248   -3.4383   34.8101 C   0  0  0  0  0  0  0  0  0  0  0  0
    1.1198   -2.3191   34.6504 C   0  0  0  0  0  0  0  0  0  0  0  0
    0.0927   -2.0100   33.1674 C   0  0  0  0  0  0  0  0  0  0  0  0
    0.0230   -2.9073   31.2578 C   0  0  0  0  0  0  0  0  0  0  0  0
   -0.3155   -2.3841   29.9043 C   0  0  0  0  0  0  0  0  0  0  0  0
   -1.5832   -2.0380   29.6186 F   0  0  0  0  0  0  0  0  0  0  0  0
    0.5906   -2.2278   28.7972 C   0  0  0  0  0  0  0  0  0  0  0  0
    1.9150   -2.6758   28.8806 C   0  0  0  0  0  0  0  0  0  0  0  0
    2.8295   -2.3195   27.9720 F   0  0  0  0  0  0  0  0  0  0  0  0
    2.1774   -3.5887   29.8978 C   0  0  0  0  0  0  0  0  0  0  0  0
    3.3310   -4.2204   30.4847 N   0  0  0  0  0  0  0  0  0  0  0  0
    2.7931   -5.0177   31.4049 C   0  0  0  0  0  0  0  0  0  0  0  0
    1.5107   -5.2409   30.9179 N   0  0  0  0  0  0  0  0  0  0  0  0
    1.0073   -3.9664   30.6001 C   0  0  0  0  0  0  0  0  0  0  0  0
    3.3293   -5.5685   33.1617 S   0  0  0  0  0  0  0  0  0  0  0  0
    1.0248   -5.1984   33.3371 N   0  0  0  0  0  0  0  0  0  0  0  0
    0.3091   -6.5148   33.2002 C   0  0  0  0  0  0  0  0  0  0  0  0
    0.6429   -3.9600   32.9397 C   0  0  0  0  0  0  0  0  0  0  0  0
    1.7228   -2.8957   32.4812 N   0  0  0  0  0  0  0  0  0  0  0  0
    1.3492   -1.2554   31.7736 N   0  0  0  0  0  0  0  0  0  0  0  0
   -0.4719    1.2646   27.8149 H   0  0  0  0  0  0  0  0  0  0  0  0
   -1.4555    2.0125   29.0821 H   0  0  0  0  0  0  0  0  0  0  0  0
   -1.5121    0.2529   28.8156 H   0  0  0  0  0  0  0  0  0  0  0  0
    0.8126    1.8223   29.7135 H   0  0  0  0  0  0  0  0  0  0  0  0
    0.3308    1.2703   31.7348 H   0  0  0  0  0  0  0  0  0  0  0  0
   -2.4829   -0.6377   31.7308 H   0  0  0  0  0  0  0  0  0  0  0  0
   -2.9974   -2.6932   33.0581 H   0  0  0  0  0  0  0  0  0  0  0  0
   -1.6588   -5.5128   34.5485 H   0  0  0  0  0  0  0  0  0  0  0  0
   -1.5735   -3.9420   35.3752 H   0  0  0  0  0  0  0  0  0  0  0  0
    0.3365   -6.0882   35.8123 H   0  0  0  0  0  0  0  0  0  0  0  0
    0.5235   -4.4597   36.3003 H   0  0  0  0  0  0  0  0  0  0  0  0
    2.5428   -3.4219   35.8631 H   0  0  0  0  0  0  0  0  0  0  0  0
    3.1379   -3.1258   34.2857 H   0  0  0  0  0  0  0  0  0  0  0  0
    1.6374   -1.3620   34.8226 H   0  0  0  0  0  0  0  0  0  0  0  0
    0.4022   -2.3875   35.4784 H   0  0  0  0  0  0  0  0  0  0  0  0
    0.3412   -0.9196   33.3112 H   0  0  0  0  0  0  0  0  0  0  0  0
   -0.8211   -1.8294   33.7830 H   0  0  0  0  0  0  0  0  0  0  0  0
    0.2481   -1.6826   27.9240 H   0  0  0  0  0  0  0  0  0  0  0  0
    0.9132   -5.9231   31.3080 H   0  0  0  0  0  0  0  0  0  0  0  0
    0.9769   -7.2531   32.7456 H   0  0  0  0  0  0  0  0  0  0  0  0
   -0.0132   -6.9969   34.1244 H   0  0  0  0  0  0  0  0  0  0  0  0
   -0.5713   -6.4257   32.5523 H   0  0  0  0  0  0  0  0  0  0  0  0
    1.9611   -0.9988   30.9962 H   0  0  0  0  0  0  0  0  0  0  0  0
  1  2  1  0
  2  3  1  0
  3  4  1  0
  4  5  2  0
  5  6  1  0
  6  7  2  0
  7  8  1  0
  8  9  1  0
  9 10  1  0
 10 11  1  0
 11 12  1  0
 12 13  1  0
 13 14  1  0
 14 15  1  0
 15 16  1  0
 15 17  2  0
 17 18  1  0
 18 19  1  0
 18 20  2  0
 20 21  1  0
 21 22  2  0
 22 23  1  0
 23 24  1  0
 22 25  1  0
 10 26  1  0
 26 27  1  0
 26 28  1  0
 28 29  2  0
 29 30  1  0
 30  4  1  0
 28  7  1  0
 25 10  1  0
 24 14  2  0
 24 20  1  0
  1 31  1  0
  1 32  1  0
  1 33  1  0
  2 34  1  0
  3 35  1  0
  5 36  1  0
  6 37  1  0
  8 38  1  0
  8 39  1  0
  9 40  1  0
  9 41  1  0
 11 42  1  0
 11 43  1  0
 12 44  1  0
 12 45  1  0
 13 46  1  0
 13 47  1  0
 17 48  1  0
 23 49  1  0
 27 50  1  0
 27 51  1  0
 27 52  1  0
 30 53  1  0
M  END
>  <Energy>  (603) 
1224.0167556935539

>  <compound_id>  (603) 
2726

>  <target_id>  (603) 
1

>  <reference_id>  (603) 
180

>  <inspiration_ids>  (603) 
[180, 194]

>  <energy_score>  (603) 
1005.6669946063068

>  <distance_score>  (603) 
2.674707628447324

>  <path>  (603) 
/opt/xchem-fragalysis-2/maxwin/BulkDock/SCRATCH/505736/C2726-P180/C2726-P180.minimised.mol

>  <scratch_subdir>  (603) 
/opt/xchem-fragalysis-2/maxwin/BulkDock/SCRATCH/505736/C2726-P180

>  <fragmenstein_runtime>  (603) 
6.071375131607056

>  <fragmenstein_outcome>  (603) 
too moved

>  <fragmenstein_mode>  (603) 
expansion

>  <fragmenstein_error>  (603) 


$$$$
C2726-P194
     RDKit          3D

 53 57  0  0  0  0  0  0  0  0999 V2000
   -1.2465    1.2424   28.4219 C   0  0  0  0  0  0  0  0  0  0  0  0
   -0.6424    0.3362   29.3937 N   0  0  0  0  0  0  0  0  0  0  0  0
   -1.0862   -0.9829   29.1495 N   0  0  0  0  0  0  0  0  0  0  0  0
   -0.5039   -1.9895   29.9208 C   0  0  0  0  0  0  0  0  0  0  0  0
   -0.6684   -3.4537   29.4913 C   0  0  0  0  0  0  0  0  0  0  0  0
   -0.1609   -5.0312   30.2457 C   0  0  0  0  0  0  0  0  0  0  0  0
    0.3796   -5.2608   31.5758 C   0  0  0  0  0  0  0  0  0  0  0  0
   -0.0606   -6.2873   32.7409 C   0  0  0  0  0  0  0  0  0  0  0  0
    0.1914   -5.8405   34.4457 C   0  0  0  0  0  0  0  0  0  0  0  0
    1.1225   -4.4437   34.7793 C   0  0  0  0  0  0  0  0  0  0  0  0
    0.0186   -3.3239   34.7347 C   0  0  0  0  0  0  0  0  0  0  0  0
   -0.9515   -3.3365   33.4788 C   0  0  0  0  0  0  0  0  0  0  0  0
   -0.4871   -3.2614   31.7123 C   0  0  0  0  0  0  0  0  0  0  0  0
    1.3766   -3.2321   30.7235 C   0  0  0  0  0  0  0  0  0  0  0  0
    1.7978   -2.6147   29.4196 C   0  0  0  0  0  0  0  0  0  0  0  0
    1.3363   -3.1114   28.2539 F   0  0  0  0  0  0  0  0  0  0  0  0
    2.6730   -1.4912   29.2568 C   0  0  0  0  0  0  0  0  0  0  0  0
    3.3127   -0.9262   30.3667 C   0  0  0  0  0  0  0  0  0  0  0  0
    3.9219    0.2617   30.2756 F   0  0  0  0  0  0  0  0  0  0  0  0
    3.3633   -1.7166   31.5138 C   0  0  0  0  0  0  0  0  0  0  0  0
    3.7636   -1.5568   32.8846 N   0  0  0  0  0  0  0  0  0  0  0  0
    3.5611   -2.7657   33.4022 C   0  0  0  0  0  0  0  0  0  0  0  0
    3.6307   -3.6034   32.2962 N   0  0  0  0  0  0  0  0  0  0  0  0
    2.8187   -3.0087   31.3156 C   0  0  0  0  0  0  0  0  0  0  0  0
    2.9860   -3.3826   35.1148 S   0  0  0  0  0  0  0  0  0  0  0  0
    1.8188   -4.7386   33.5884 N   0  0  0  0  0  0  0  0  0  0  0  0
    2.5991   -5.9965   33.4971 C   0  0  0  0  0  0  0  0  0  0  0  0
    1.1481   -4.0595   32.6304 C   0  0  0  0  0  0  0  0  0  0  0  0
    1.0413   -2.4860   32.6809 N   0  0  0  0  0  0  0  0  0  0  0  0
    0.3694   -1.4460   31.3436 N   0  0  0  0  0  0  0  0  0  0  0  0
   -0.8829    2.2593   28.5992 H   0  0  0  0  0  0  0  0  0  0  0  0
   -2.3341    1.2623   28.5190 H   0  0  0  0  0  0  0  0  0  0  0  0
   -0.9836    0.9653   27.3954 H   0  0  0  0  0  0  0  0  0  0  0  0
    0.3767    0.3834   29.2914 H   0  0  0  0  0  0  0  0  0  0  0  0
   -1.2310   -1.2771   28.1755 H   0  0  0  0  0  0  0  0  0  0  0  0
   -1.2178   -3.6610   28.5756 H   0  0  0  0  0  0  0  0  0  0  0  0
   -0.6846   -5.8389   29.7455 H   0  0  0  0  0  0  0  0  0  0  0  0
    0.4557   -7.2400   32.5834 H   0  0  0  0  0  0  0  0  0  0  0  0
   -1.1344   -6.4851   32.6416 H   0  0  0  0  0  0  0  0  0  0  0  0
    0.5594   -6.7101   35.0054 H   0  0  0  0  0  0  0  0  0  0  0  0
   -0.8126   -5.7019   34.8698 H   0  0  0  0  0  0  0  0  0  0  0  0
   -0.6134   -3.4707   35.6226 H   0  0  0  0  0  0  0  0  0  0  0  0
    0.4295   -2.3180   34.8895 H   0  0  0  0  0  0  0  0  0  0  0  0
   -1.6648   -2.5109   33.6210 H   0  0  0  0  0  0  0  0  0  0  0  0
   -1.5454   -4.2433   33.5123 H   0  0  0  0  0  0  0  0  0  0  0  0
   -1.3037   -3.9588   31.4056 H   0  0  0  0  0  0  0  0  0  0  0  0
   -1.2126   -2.4019   31.6487 H   0  0  0  0  0  0  0  0  0  0  0  0
    2.7672   -1.0316   28.2794 H   0  0  0  0  0  0  0  0  0  0  0  0
    3.6789   -4.5862   32.3803 H   0  0  0  0  0  0  0  0  0  0  0  0
    2.2643   -6.8331   34.1123 H   0  0  0  0  0  0  0  0  0  0  0  0
    2.6296   -6.3349   32.4619 H   0  0  0  0  0  0  0  0  0  0  0  0
    3.6311   -5.8435   33.8354 H   0  0  0  0  0  0  0  0  0  0  0  0
   -0.0012   -0.5435   31.6473 H   0  0  0  0  0  0  0  0  0  0  0  0
  1  2  1  0
  2  3  1  0
  3  4  1  0
  4  5  2  0
  5  6  1  0
  6  7  2  0
  7  8  1  0
  8  9  1  0
  9 10  1  0
 10 11  1  0
 11 12  1  0
 12 13  1  0
 13 14  1  0
 14 15  1  0
 15 16  1  0
 15 17  2  0
 17 18  1  0
 18 19  1  0
 18 20  2  0
 20 21  1  0
 21 22  2  0
 22 23  1  0
 23 24  1  0
 22 25  1  0
 10 26  1  0
 26 27  1  0
 26 28  1  0
 28 29  2  0
 29 30  1  0
 30  4  1  0
 28  7  1  0
 25 10  1  0
 24 14  2  0
 24 20  1  0
  1 31  1  0
  1 32  1  0
  1 33  1  0
  2 34  1  0
  3 35  1  0
  5 36  1  0
  6 37  1  0
  8 38  1  0
  8 39  1  0
  9 40  1  0
  9 41  1  0
 11 42  1  0
 11 43  1  0
 12 44  1  0
 12 45  1  0
 13 46  1  0
 13 47  1  0
 17 48  1  0
 23 49  1  0
 27 50  1  0
 27 51  1  0
 27 52  1  0
 30 53  1  0
M  END
>  <Energy>  (604) 
1213.6806473000629

>  <compound_id>  (604) 
2726

>  <target_id>  (604) 
1

>  <reference_id>  (604) 
194

>  <inspiration_ids>  (604) 
[180, 194]

>  <energy_score>  (604) 
995.3308862128242

>  <distance_score>  (604) 
3.0928110364210504

>  <path>  (604) 
/opt/xchem-fragalysis-2/maxwin/BulkDock/SCRATCH/505736/C2726-P194/C2726-P194.minimised.mol

>  <scratch_subdir>  (604) 
/opt/xchem-fragalysis-2/maxwin/BulkDock/SCRATCH/505736/C2726-P194

>  <fragmenstein_runtime>  (604) 
7.150887966156006

>  <fragmenstein_outcome>  (604) 
too moved

>  <fragmenstein_mode>  (604) 
expansion

>  <fragmenstein_error>  (604) 


$$$$
C2728-P180
     RDKit          3D

 54 54  0  0  0  0  0  0  0  0999 V2000
   -1.5087    2.6510   27.7904 C   0  0  0  0  0  0  0  0  0  0  0  0
   -0.9653    1.4724   28.5861 C   0  0  0  0  0  0  0  0  0  0  0  0
   -1.0074    0.1902   27.7569 C   0  0  0  0  0  0  0  0  0  0  0  0
   -0.1445   -0.9462   28.2874 C   0  0  0  0  0  0  0  0  0  0  0  0
   -0.5492   -1.2594   29.5512 F   0  0  0  0  0  0  0  0  0  0  0  0
    1.3402   -0.5958   28.3154 C   0  0  0  0  0  0  0  0  0  0  0  0
    2.3117   -1.7794   28.2487 C   0  0  0  0  0  0  0  0  0  0  0  0
    2.3424   -2.8027   29.3782 C   0  0  0  0  0  0  0  0  0  0  0  0
    2.5809   -2.1675   30.6747 N   0  0  0  0  0  0  0  0  0  0  0  0
    1.1396   -3.7714   29.4275 C   0  0  0  0  0  0  0  0  0  0  0  0
    1.0652   -4.4163   30.7404 N   0  0  0  0  0  0  0  0  0  0  0  0
    2.0009   -5.5182   30.8961 C   0  0  0  0  0  0  0  0  0  0  0  0
    2.7166   -5.6636   32.5739 S   0  0  0  0  0  0  0  0  0  0  0  0
    1.2478   -5.6506   33.5811 C   0  0  0  0  0  0  0  0  0  0  0  0
    1.2273   -4.6538   34.5494 C   0  0  0  0  0  0  0  0  0  0  0  0
    0.1053   -3.8422   34.5874 C   0  0  0  0  0  0  0  0  0  0  0  0
   -0.8912   -4.0955   33.6571 C   0  0  0  0  0  0  0  0  0  0  0  0
   -1.7426   -2.7388   32.8806 S   0  0  0  0  0  0  0  0  0  0  0  0
   -2.3180   -1.8676   33.8759 O   0  0  0  0  0  0  0  0  0  0  0  0
   -2.5156   -3.2981   31.7905 O   0  0  0  0  0  0  0  0  0  0  0  0
   -0.4714   -1.9071   32.1632 N   0  0  0  0  0  0  0  0  0  0  0  0
    0.1530   -0.8006   32.9034 C   0  0  0  0  0  0  0  0  0  0  0  0
   -0.3823    0.5266   32.4046 C   0  0  0  0  0  0  0  0  0  0  0  0
   -0.9102   -5.3325   33.0267 C   0  0  0  0  0  0  0  0  0  0  0  0
    0.1468   -6.1622   33.0062 N   0  0  0  0  0  0  0  0  0  0  0  0
   -2.5139    2.4456   27.4109 H   0  0  0  0  0  0  0  0  0  0  0  0
   -1.5482    3.5473   28.4168 H   0  0  0  0  0  0  0  0  0  0  0  0
   -0.8640    2.8694   26.9326 H   0  0  0  0  0  0  0  0  0  0  0  0
   -1.5577    1.3357   29.4966 H   0  0  0  0  0  0  0  0  0  0  0  0
    0.0559    1.7148   28.8952 H   0  0  0  0  0  0  0  0  0  0  0  0
   -2.0357   -0.1670   27.6999 H   0  0  0  0  0  0  0  0  0  0  0  0
   -0.7020    0.4210   26.7355 H   0  0  0  0  0  0  0  0  0  0  0  0
   -0.3208   -1.8272   27.6687 H   0  0  0  0  0  0  0  0  0  0  0  0
    1.5615   -0.0050   29.2113 H   0  0  0  0  0  0  0  0  0  0  0  0
    1.5730    0.0431   27.4540 H   0  0  0  0  0  0  0  0  0  0  0  0
    2.1562   -2.3296   27.3228 H   0  0  0  0  0  0  0  0  0  0  0  0
    3.3202   -1.3500   28.1620 H   0  0  0  0  0  0  0  0  0  0  0  0
    3.2293   -3.4242   29.1948 H   0  0  0  0  0  0  0  0  0  0  0  0
    2.4165   -2.8994   31.3783 H   0  0  0  0  0  0  0  0  0  0  0  0
    1.8037   -1.5312   30.8484 H   0  0  0  0  0  0  0  0  0  0  0  0
    0.1938   -3.2588   29.2843 H   0  0  0  0  0  0  0  0  0  0  0  0
    1.2131   -4.5097   28.6224 H   0  0  0  0  0  0  0  0  0  0  0  0
    0.1294   -4.7989   30.8526 H   0  0  0  0  0  0  0  0  0  0  0  0
    2.8582   -5.4277   30.2217 H   0  0  0  0  0  0  0  0  0  0  0  0
    1.4977   -6.4554   30.6360 H   0  0  0  0  0  0  0  0  0  0  0  0
    2.1370   -4.3249   35.0438 H   0  0  0  0  0  0  0  0  0  0  0  0
    0.1282   -2.9116   35.1463 H   0  0  0  0  0  0  0  0  0  0  0  0
   -0.5741   -1.8015   31.1450 H   0  0  0  0  0  0  0  0  0  0  0  0
   -0.0061   -0.8883   33.9815 H   0  0  0  0  0  0  0  0  0  0  0  0
    1.2353   -0.8394   32.7578 H   0  0  0  0  0  0  0  0  0  0  0  0
   -0.1252    0.6759   31.3524 H   0  0  0  0  0  0  0  0  0  0  0  0
   -1.4719    0.5770   32.4964 H   0  0  0  0  0  0  0  0  0  0  0  0
    0.0498    1.3527   32.9775 H   0  0  0  0  0  0  0  0  0  0  0  0
   -1.6697   -5.6325   32.3270 H   0  0  0  0  0  0  0  0  0  0  0  0
  1  2  1  0
  2  3  1  0
  3  4  1  0
  4  5  1  0
  4  6  1  0
  6  7  1  0
  7  8  1  0
  8  9  1  0
  8 10  1  0
 10 11  1  0
 11 12  1  0
 12 13  1  0
 13 14  1  0
 14 15  2  0
 15 16  1  0
 16 17  2  0
 17 18  1  0
 18 19  2  0
 18 20  2  0
 18 21  1  0
 21 22  1  0
 22 23  1  0
 17 24  1  0
 24 25  2  0
 25 14  1  0
  1 26  1  0
  1 27  1  0
  1 28  1  0
  2 29  1  0
  2 30  1  0
  3 31  1  0
  3 32  1  0
  4 33  1  0
  6 34  1  0
  6 35  1  0
  7 36  1  0
  7 37  1  0
  8 38  1  0
  9 39  1  0
  9 40  1  0
 10 41  1  0
 10 42  1  0
 11 43  1  0
 12 44  1  0
 12 45  1  0
 15 46  1  0
 16 47  1  0
 21 48  1  0
 22 49  1  0
 22 50  1  0
 23 51  1  0
 23 52  1  0
 23 53  1  0
 24 54  1  0
M  END
>  <Energy>  (605) 
-22.64998615191492

>  <compound_id>  (605) 
2728

>  <target_id>  (605) 
1

>  <reference_id>  (605) 
180

>  <inspiration_ids>  (605) 
[180, 196]

>  <energy_score>  (605) 
-16.411727960610193

>  <distance_score>  (605) 
1.5836260937637572

>  <path>  (605) 
/opt/xchem-fragalysis-2/maxwin/BulkDock/SCRATCH/505736/C2728-P180/C2728-P180.minimised.mol

>  <scratch_subdir>  (605) 
/opt/xchem-fragalysis-2/maxwin/BulkDock/SCRATCH/505736/C2728-P180

>  <fragmenstein_runtime>  (605) 
4.372731447219849

>  <fragmenstein_outcome>  (605) 
too moved

>  <fragmenstein_mode>  (605) 
expansion

>  <fragmenstein_error>  (605) 


$$$$
C2728-P196
     RDKit          3D

 54 54  0  0  0  0  0  0  0  0999 V2000
   -1.9267    1.4823   28.5703 C   0  0  0  0  0  0  0  0  0  0  0  0
   -0.7862    0.5195   28.4760 C   0  0  0  0  0  0  0  0  0  0  0  0
   -1.2292   -0.7793   27.8159 C   0  0  0  0  0  0  0  0  0  0  0  0
   -0.2073   -1.8765   28.0329 C   0  0  0  0  0  0  0  0  0  0  0  0
   -0.3600   -2.2794   29.3298 F   0  0  0  0  0  0  0  0  0  0  0  0
    1.2298   -1.3972   27.8252 C   0  0  0  0  0  0  0  0  0  0  0  0
    2.3074   -2.4733   27.8613 C   0  0  0  0  0  0  0  0  0  0  0  0
    2.3258   -3.4301   29.0577 C   0  0  0  0  0  0  0  0  0  0  0  0
    1.2994   -4.4613   28.9749 N   0  0  0  0  0  0  0  0  0  0  0  0
    2.2884   -2.7101   30.4247 C   0  0  0  0  0  0  0  0  0  0  0  0
    1.8942   -3.5250   31.5825 N   0  0  0  0  0  0  0  0  0  0  0  0
    2.6553   -4.7590   31.6712 C   0  0  0  0  0  0  0  0  0  0  0  0
    2.7613   -5.4651   33.3582 S   0  0  0  0  0  0  0  0  0  0  0  0
    1.0204   -5.5758   33.7506 C   0  0  0  0  0  0  0  0  0  0  0  0
    0.6489   -4.7325   34.7927 C   0  0  0  0  0  0  0  0  0  0  0  0
   -0.4077   -3.8747   34.5504 C   0  0  0  0  0  0  0  0  0  0  0  0
   -1.0124   -3.9463   33.3024 C   0  0  0  0  0  0  0  0  0  0  0  0
   -1.8868   -2.5755   32.6342 S   0  0  0  0  0  0  0  0  0  0  0  0
   -2.4453   -1.7703   33.6960 O   0  0  0  0  0  0  0  0  0  0  0  0
   -2.7008   -3.0725   31.5487 O   0  0  0  0  0  0  0  0  0  0  0  0
   -0.6172   -1.6930   31.9617 N   0  0  0  0  0  0  0  0  0  0  0  0
   -0.3708   -0.3598   32.5379 C   0  0  0  0  0  0  0  0  0  0  0  0
    1.0157    0.1408   32.1833 C   0  0  0  0  0  0  0  0  0  0  0  0
   -0.7693   -5.0435   32.4870 C   0  0  0  0  0  0  0  0  0  0  0  0
    0.2173   -5.9243   32.7278 N   0  0  0  0  0  0  0  0  0  0  0  0
   -2.5370    1.1666   29.4130 H   0  0  0  0  0  0  0  0  0  0  0  0
   -1.5657    2.4996   28.7355 H   0  0  0  0  0  0  0  0  0  0  0  0
   -2.5602    1.4755   27.6849 H   0  0  0  0  0  0  0  0  0  0  0  0
   -0.4158    0.3317   29.4874 H   0  0  0  0  0  0  0  0  0  0  0  0
    0.0318    0.9768   27.9141 H   0  0  0  0  0  0  0  0  0  0  0  0
   -2.1813   -1.1089   28.2440 H   0  0  0  0  0  0  0  0  0  0  0  0
   -1.3922   -0.6274   26.7464 H   0  0  0  0  0  0  0  0  0  0  0  0
   -0.4387   -2.7316   27.3902 H   0  0  0  0  0  0  0  0  0  0  0  0
    1.4972   -0.6537   28.5836 H   0  0  0  0  0  0  0  0  0  0  0  0
    1.3056   -0.8934   26.8586 H   0  0  0  0  0  0  0  0  0  0  0  0
    2.2475   -3.0598   26.9342 H   0  0  0  0  0  0  0  0  0  0  0  0
    3.2811   -1.9666   27.8164 H   0  0  0  0  0  0  0  0  0  0  0  0
    3.2781   -3.9732   28.9985 H   0  0  0  0  0  0  0  0  0  0  0  0
    0.4937   -4.1520   29.5293 H   0  0  0  0  0  0  0  0  0  0  0  0
    0.9459   -4.5814   28.0257 H   0  0  0  0  0  0  0  0  0  0  0  0
    3.2783   -2.2748   30.6148 H   0  0  0  0  0  0  0  0  0  0  0  0
    1.6016   -1.8694   30.3920 H   0  0  0  0  0  0  0  0  0  0  0  0
    2.0441   -2.9865   32.4317 H   0  0  0  0  0  0  0  0  0  0  0  0
    3.6945   -4.5672   31.3847 H   0  0  0  0  0  0  0  0  0  0  0  0
    2.2520   -5.5344   31.0174 H   0  0  0  0  0  0  0  0  0  0  0  0
    1.3043   -4.5477   35.6380 H   0  0  0  0  0  0  0  0  0  0  0  0
   -0.6303   -3.0604   35.2335 H   0  0  0  0  0  0  0  0  0  0  0  0
   -0.6272   -1.7606   30.9354 H   0  0  0  0  0  0  0  0  0  0  0  0
   -1.1233    0.3386   32.1581 H   0  0  0  0  0  0  0  0  0  0  0  0
   -0.4346   -0.3927   33.6302 H   0  0  0  0  0  0  0  0  0  0  0  0
    1.1485    0.2356   31.1032 H   0  0  0  0  0  0  0  0  0  0  0  0
    1.1849    1.1270   32.6274 H   0  0  0  0  0  0  0  0  0  0  0  0
    1.7870   -0.5360   32.5638 H   0  0  0  0  0  0  0  0  0  0  0  0
   -1.2534   -5.1690   31.5269 H   0  0  0  0  0  0  0  0  0  0  0  0
  1  2  1  0
  2  3  1  0
  3  4  1  0
  4  5  1  0
  4  6  1  0
  6  7  1  0
  7  8  1  0
  8  9  1  0
  8 10  1  0
 10 11  1  0
 11 12  1  0
 12 13  1  0
 13 14  1  0
 14 15  2  0
 15 16  1  0
 16 17  2  0
 17 18  1  0
 18 19  2  0
 18 20  2  0
 18 21  1  0
 21 22  1  0
 22 23  1  0
 17 24  1  0
 24 25  2  0
 25 14  1  0
  1 26  1  0
  1 27  1  0
  1 28  1  0
  2 29  1  0
  2 30  1  0
  3 31  1  0
  3 32  1  0
  4 33  1  0
  6 34  1  0
  6 35  1  0
  7 36  1  0
  7 37  1  0
  8 38  1  0
  9 39  1  0
  9 40  1  0
 10 41  1  0
 10 42  1  0
 11 43  1  0
 12 44  1  0
 12 45  1  0
 15 46  1  0
 16 47  1  0
 21 48  1  0
 22 49  1  0
 22 50  1  0
 23 51  1  0
 23 52  1  0
 23 53  1  0
 24 54  1  0
M  END
>  <Energy>  (606) 
-23.666175769861532

>  <compound_id>  (606) 
2728

>  <target_id>  (606) 
1

>  <reference_id>  (606) 
196

>  <inspiration_ids>  (606) 
[180, 196]

>  <energy_score>  (606) 
-17.427917578557697

>  <distance_score>  (606) 
1.9348143844991175

>  <path>  (606) 
/opt/xchem-fragalysis-2/maxwin/BulkDock/SCRATCH/505736/C2728-P196/C2728-P196.minimised.mol

>  <scratch_subdir>  (606) 
/opt/xchem-fragalysis-2/maxwin/BulkDock/SCRATCH/505736/C2728-P196

>  <fragmenstein_runtime>  (606) 
4.656594276428223

>  <fragmenstein_outcome>  (606) 
too moved

>  <fragmenstein_mode>  (606) 
expansion

>  <fragmenstein_error>  (606) 


$$$$
C2731-P180
     RDKit          3D

 70 74  0  0  0  0  0  0  0  0999 V2000
   -2.4113   -0.2412   31.8094 C   0  0  0  0  0  0  0  0  0  0  0  0
   -1.3382   -1.2692   31.4834 C   0  0  0  0  0  0  0  0  0  0  0  0
   -1.9303   -2.6881   31.6282 C   0  0  0  0  0  0  0  0  0  0  0  0
   -0.9035   -3.8140   31.7178 C   0  0  0  0  0  0  0  0  0  0  0  0
    0.1283   -3.8764   30.5827 C   0  0  0  0  0  0  0  0  0  0  0  0
    0.1602   -5.1562   29.8851 N   0  0  0  0  0  0  0  0  0  0  0  0
    1.5607   -5.4957   29.7293 C   0  0  0  0  0  0  0  0  0  0  0  0
    2.2442   -4.8502   30.9173 C   0  0  0  0  0  0  0  0  0  0  0  0
    2.5088   -5.8512   32.3977 S   0  0  0  0  0  0  0  0  0  0  0  0
    1.0205   -6.1812   33.1893 C   0  0  0  0  0  0  0  0  0  0  0  0
    0.8436   -5.6890   34.4349 C   0  0  0  0  0  0  0  0  0  0  0  0
   -0.3179   -6.0777   35.2141 C   0  0  0  0  0  0  0  0  0  0  0  0
   -1.2378   -6.9187   34.7135 C   0  0  0  0  0  0  0  0  0  0  0  0
   -1.0984   -7.4034   33.3903 C   0  0  0  0  0  0  0  0  0  0  0  0
   -1.8725   -8.1494   32.6351 N   0  0  0  0  0  0  0  0  0  0  0  0
   -1.2340   -8.3756   31.4502 N   0  0  0  0  0  0  0  0  0  0  0  0
   -0.0658   -7.7911   31.5345 C   0  0  0  0  0  0  0  0  0  0  0  0
    0.0469   -7.0618   32.6888 N   0  0  0  0  0  0  0  0  0  0  0  0
    1.4423   -3.6808   31.1921 N   0  0  0  0  0  0  0  0  0  0  0  0
    2.0748   -2.4434   30.7523 C   0  0  0  0  0  0  0  0  0  0  0  0
    2.4417   -2.3513   29.2646 C   0  0  0  0  0  0  0  0  0  0  0  0
    2.6849   -0.9051   28.8647 C   0  0  0  0  0  0  0  0  0  0  0  0
    1.6955   -0.3519   27.8252 C   0  0  0  0  0  0  0  0  0  0  0  0
    2.0596    1.1046   27.5654 C   0  0  0  0  0  0  0  0  0  0  0  0
    1.1459    1.7361   26.7990 F   0  0  0  0  0  0  0  0  0  0  0  0
    2.2187    1.8168   28.6985 F   0  0  0  0  0  0  0  0  0  0  0  0
    3.2436    1.1732   26.9085 F   0  0  0  0  0  0  0  0  0  0  0  0
    0.1875   -0.6154   28.0660 C   0  0  0  0  0  0  0  0  0  0  0  0
   -0.3285   -0.2373   29.4514 C   0  0  0  0  0  0  0  0  0  0  0  0
   -0.1106    1.0645   29.7996 N   0  0  0  0  0  0  0  0  0  0  0  0
   -0.8571    2.1123   29.0776 C   0  0  0  0  0  0  0  0  0  0  0  0
   -0.1535    3.4687   29.1301 C   0  0  0  0  0  0  0  0  0  0  0  0
    0.4359    3.7805   30.4135 N   0  0  0  0  0  0  0  0  0  0  0  0
    0.9314    2.8218   31.2527 C   0  0  0  0  0  0  0  0  0  0  0  0
    1.6904    3.1486   32.1665 O   0  0  0  0  0  0  0  0  0  0  0  0
    0.4054    1.4008   31.1239 C   0  0  0  0  0  0  0  0  0  0  0  0
   -0.8526   -1.1816   30.1196 N   0  0  0  0  0  0  0  0  0  0  0  0
   -3.3251   -0.6970   32.2024 H   0  0  0  0  0  0  0  0  0  0  0  0
   -2.6664    0.3677   30.9424 H   0  0  0  0  0  0  0  0  0  0  0  0
   -2.0738    0.4263   32.6081 H   0  0  0  0  0  0  0  0  0  0  0  0
   -0.5103   -1.1631   32.1931 H   0  0  0  0  0  0  0  0  0  0  0  0
   -2.6022   -2.8892   30.7927 H   0  0  0  0  0  0  0  0  0  0  0  0
   -2.5364   -2.7357   32.5415 H   0  0  0  0  0  0  0  0  0  0  0  0
   -1.4418   -4.7608   31.7934 H   0  0  0  0  0  0  0  0  0  0  0  0
   -0.4067   -3.6983   32.6899 H   0  0  0  0  0  0  0  0  0  0  0  0
   -0.0968   -3.1806   29.7846 H   0  0  0  0  0  0  0  0  0  0  0  0
   -0.3864   -5.8419   30.3805 H   0  0  0  0  0  0  0  0  0  0  0  0
    1.7354   -6.5631   29.6183 H   0  0  0  0  0  0  0  0  0  0  0  0
    1.9215   -5.0478   28.7959 H   0  0  0  0  0  0  0  0  0  0  0  0
    3.2671   -4.5933   30.6191 H   0  0  0  0  0  0  0  0  0  0  0  0
    1.5657   -5.0320   34.9129 H   0  0  0  0  0  0  0  0  0  0  0  0
   -0.4107   -5.6899   36.2248 H   0  0  0  0  0  0  0  0  0  0  0  0
   -2.0870   -7.2434   35.2962 H   0  0  0  0  0  0  0  0  0  0  0  0
    0.7008   -7.8672   30.7870 H   0  0  0  0  0  0  0  0  0  0  0  0
    2.9951   -2.3025   31.3366 H   0  0  0  0  0  0  0  0  0  0  0  0
    1.4488   -1.6053   31.0574 H   0  0  0  0  0  0  0  0  0  0  0  0
    3.3652   -2.9185   29.0929 H   0  0  0  0  0  0  0  0  0  0  0  0
    1.6938   -2.8046   28.6119 H   0  0  0  0  0  0  0  0  0  0  0  0
    2.7090   -0.2573   29.7484 H   0  0  0  0  0  0  0  0  0  0  0  0
    3.6948   -0.8390   28.4364 H   0  0  0  0  0  0  0  0  0  0  0  0
    1.9389   -0.8682   26.8973 H   0  0  0  0  0  0  0  0  0  0  0  0
   -0.4120   -0.0897   27.3159 H   0  0  0  0  0  0  0  0  0  0  0  0
   -0.0253   -1.6781   27.9040 H   0  0  0  0  0  0  0  0  0  0  0  0
   -1.8589    2.1691   29.4956 H   0  0  0  0  0  0  0  0  0  0  0  0
   -1.0074    1.8511   28.0252 H   0  0  0  0  0  0  0  0  0  0  0  0
    0.6581    3.5128   28.3993 H   0  0  0  0  0  0  0  0  0  0  0  0
   -0.8514    4.2703   28.8703 H   0  0  0  0  0  0  0  0  0  0  0  0
    0.8231    4.7063   30.5492 H   0  0  0  0  0  0  0  0  0  0  0  0
   -0.3638    1.3104   31.8868 H   0  0  0  0  0  0  0  0  0  0  0  0
    1.2318    0.7297   31.3787 H   0  0  0  0  0  0  0  0  0  0  0  0
  1  2  1  0
  2  3  1  0
  3  4  1  0
  4  5  1  0
  5  6  1  0
  6  7  1  0
  7  8  1  0
  8  9  1  0
  9 10  1  0
 10 11  2  0
 11 12  1  0
 12 13  2  0
 13 14  1  0
 14 15  2  0
 15 16  1  0
 16 17  2  0
 17 18  1  0
  8 19  1  0
 19 20  1  0
 20 21  1  0
 21 22  1  0
 22 23  1  0
 23 24  1  0
 24 25  1  0
 24 26  1  0
 24 27  1  0
 23 28  1  0
 28 29  1  0
 29 30  1  0
 30 31  1  0
 31 32  1  0
 32 33  1  0
 33 34  1  0
 34 35  2  0
 34 36  1  0
 29 37  2  3
 37  2  1  0
 19  5  1  0
 36 30  1  0
 18 10  1  0
 18 14  1  0
  1 38  1  0
  1 39  1  0
  1 40  1  0
  2 41  1  0
  3 42  1  0
  3 43  1  0
  4 44  1  0
  4 45  1  0
  5 46  1  0
  6 47  1  0
  7 48  1  0
  7 49  1  0
  8 50  1  0
 11 51  1  0
 12 52  1  0
 13 53  1  0
 17 54  1  0
 20 55  1  0
 20 56  1  0
 21 57  1  0
 21 58  1  0
 22 59  1  0
 22 60  1  0
 23 61  1  0
 28 62  1  0
 28 63  1  0
 31 64  1  0
 31 65  1  0
 32 66  1  0
 32 67  1  0
 33 68  1  0
 36 69  1  0
 36 70  1  0
M  END
>  <Energy>  (607) 
110.17975339545561

>  <compound_id>  (607) 
2731

>  <target_id>  (607) 
1

>  <reference_id>  (607) 
180

>  <inspiration_ids>  (607) 
[180, 202]

>  <energy_score>  (607) 
-78.86655708759946

>  <distance_score>  (607) 
1.435205643281532

>  <path>  (607) 
/opt/xchem-fragalysis-2/maxwin/BulkDock/SCRATCH/505736/C2731-P180/C2731-P180.minimised.mol

>  <scratch_subdir>  (607) 
/opt/xchem-fragalysis-2/maxwin/BulkDock/SCRATCH/505736/C2731-P180

>  <fragmenstein_runtime>  (607) 
5.503690481185913

>  <fragmenstein_outcome>  (607) 
too moved

>  <fragmenstein_mode>  (607) 
expansion

>  <fragmenstein_error>  (607) 


$$$$
C2731-P202
     RDKit          3D

 70 74  0  0  0  0  0  0  0  0999 V2000
   -2.5703   -0.4659   32.6125 C   0  0  0  0  0  0  0  0  0  0  0  0
   -1.5474   -1.3844   31.9486 C   0  0  0  0  0  0  0  0  0  0  0  0
   -2.1380   -2.7856   31.7523 C   0  0  0  0  0  0  0  0  0  0  0  0
   -1.0786   -3.8805   31.5888 C   0  0  0  0  0  0  0  0  0  0  0  0
   -0.2999   -3.8487   30.2650 C   0  0  0  0  0  0  0  0  0  0  0  0
   -0.0993   -5.1572   29.6572 N   0  0  0  0  0  0  0  0  0  0  0  0
    1.3254   -5.3794   29.4999 C   0  0  0  0  0  0  0  0  0  0  0  0
    1.9476   -4.4663   30.5219 C   0  0  0  0  0  0  0  0  0  0  0  0
    2.3680   -5.2484   32.0977 S   0  0  0  0  0  0  0  0  0  0  0  0
    1.0333   -5.8351   33.0215 C   0  0  0  0  0  0  0  0  0  0  0  0
    0.9335   -5.3712   34.2897 C   0  0  0  0  0  0  0  0  0  0  0  0
   -0.0888   -5.8768   35.1874 C   0  0  0  0  0  0  0  0  0  0  0  0
   -0.9789   -6.7940   34.7783 C   0  0  0  0  0  0  0  0  0  0  0  0
   -0.9287   -7.2685   33.4472 C   0  0  0  0  0  0  0  0  0  0  0  0
   -1.7151   -8.0808   32.7771 N   0  0  0  0  0  0  0  0  0  0  0  0
   -1.1593   -8.2914   31.5494 N   0  0  0  0  0  0  0  0  0  0  0  0
   -0.0315   -7.6239   31.5235 C   0  0  0  0  0  0  0  0  0  0  0  0
    0.1150   -6.8349   32.6326 N   0  0  0  0  0  0  0  0  0  0  0  0
    1.0434   -3.3066   30.5048 N   0  0  0  0  0  0  0  0  0  0  0  0
    1.3587   -2.4473   29.3350 C   0  0  0  0  0  0  0  0  0  0  0  0
    2.3159   -1.3522   29.7481 C   0  0  0  0  0  0  0  0  0  0  0  0
    2.3320   -0.1455   28.8162 C   0  0  0  0  0  0  0  0  0  0  0  0
    1.0293    0.3441   28.1381 C   0  0  0  0  0  0  0  0  0  0  0  0
    1.3153    1.6760   27.4330 C   0  0  0  0  0  0  0  0  0  0  0  0
    0.2922    2.0433   26.6315 F   0  0  0  0  0  0  0  0  0  0  0  0
    1.5198    2.6847   28.3058 F   0  0  0  0  0  0  0  0  0  0  0  0
    2.4246    1.5960   26.6654 F   0  0  0  0  0  0  0  0  0  0  0  0
   -0.3174    0.4561   28.8941 C   0  0  0  0  0  0  0  0  0  0  0  0
   -0.4148    0.1295   30.3961 C   0  0  0  0  0  0  0  0  0  0  0  0
    0.2610    0.9459   31.2946 N   0  0  0  0  0  0  0  0  0  0  0  0
    0.7515    2.2929   30.9311 C   0  0  0  0  0  0  0  0  0  0  0  0
    1.0031    3.1603   32.1661 C   0  0  0  0  0  0  0  0  0  0  0  0
    1.9848    2.5230   33.0073 N   0  0  0  0  0  0  0  0  0  0  0  0
    1.9952    1.1549   33.1178 C   0  0  0  0  0  0  0  0  0  0  0  0
    2.9184    0.5928   33.7026 O   0  0  0  0  0  0  0  0  0  0  0  0
    0.7780    0.4159   32.5732 C   0  0  0  0  0  0  0  0  0  0  0  0
   -1.1853   -0.8655   30.6436 N   0  0  0  0  0  0  0  0  0  0  0  0
   -3.4723   -0.3696   32.0097 H   0  0  0  0  0  0  0  0  0  0  0  0
   -2.1746    0.5423   32.7588 H   0  0  0  0  0  0  0  0  0  0  0  0
   -2.8608   -0.8522   33.5953 H   0  0  0  0  0  0  0  0  0  0  0  0
   -0.6984   -1.5075   32.6176 H   0  0  0  0  0  0  0  0  0  0  0  0
   -2.8283   -2.8038   30.9086 H   0  0  0  0  0  0  0  0  0  0  0  0
   -2.7232   -3.0280   32.6449 H   0  0  0  0  0  0  0  0  0  0  0  0
   -1.5683   -4.8467   31.6990 H   0  0  0  0  0  0  0  0  0  0  0  0
   -0.4079   -3.7886   32.4458 H   0  0  0  0  0  0  0  0  0  0  0  0
   -0.9050   -3.2785   29.5513 H   0  0  0  0  0  0  0  0  0  0  0  0
   -0.5958   -5.8808   30.1509 H   0  0  0  0  0  0  0  0  0  0  0  0
    1.6329   -6.4195   29.5653 H   0  0  0  0  0  0  0  0  0  0  0  0
    1.6237   -5.0695   28.4920 H   0  0  0  0  0  0  0  0  0  0  0  0
    2.9363   -4.1623   30.1567 H   0  0  0  0  0  0  0  0  0  0  0  0
    1.6128   -4.6234   34.6933 H   0  0  0  0  0  0  0  0  0  0  0  0
   -0.1120   -5.4943   36.2042 H   0  0  0  0  0  0  0  0  0  0  0  0
   -1.7334   -7.1884   35.4423 H   0  0  0  0  0  0  0  0  0  0  0  0
    0.6788   -7.6913   30.7251 H   0  0  0  0  0  0  0  0  0  0  0  0
    0.4508   -1.9979   28.9386 H   0  0  0  0  0  0  0  0  0  0  0  0
    1.7844   -2.9883   28.4819 H   0  0  0  0  0  0  0  0  0  0  0  0
    2.0909   -1.0051   30.7526 H   0  0  0  0  0  0  0  0  0  0  0  0
    3.3339   -1.7571   29.8191 H   0  0  0  0  0  0  0  0  0  0  0  0
    2.8114    0.6812   29.3522 H   0  0  0  0  0  0  0  0  0  0  0  0
    3.0350   -0.3872   28.0054 H   0  0  0  0  0  0  0  0  0  0  0  0
    0.8429   -0.3742   27.3352 H   0  0  0  0  0  0  0  0  0  0  0  0
   -0.7590    1.4519   28.7609 H   0  0  0  0  0  0  0  0  0  0  0  0
   -1.0293   -0.2039   28.3741 H   0  0  0  0  0  0  0  0  0  0  0  0
    0.0494    2.8109   30.2757 H   0  0  0  0  0  0  0  0  0  0  0  0
    1.7044    2.1845   30.4118 H   0  0  0  0  0  0  0  0  0  0  0  0
    1.3854    4.1456   31.8836 H   0  0  0  0  0  0  0  0  0  0  0  0
    0.0919    3.2893   32.7576 H   0  0  0  0  0  0  0  0  0  0  0  0
    2.8002    3.0172   33.3496 H   0  0  0  0  0  0  0  0  0  0  0  0
    0.0093    0.4945   33.3481 H   0  0  0  0  0  0  0  0  0  0  0  0
    1.0878   -0.6266   32.4754 H   0  0  0  0  0  0  0  0  0  0  0  0
  1  2  1  0
  2  3  1  0
  3  4  1  0
  4  5  1  0
  5  6  1  0
  6  7  1  0
  7  8  1  0
  8  9  1  0
  9 10  1  0
 10 11  2  0
 11 12  1  0
 12 13  2  0
 13 14  1  0
 14 15  2  0
 15 16  1  0
 16 17  2  0
 17 18  1  0
  8 19  1  0
 19 20  1  0
 20 21  1  0
 21 22  1  0
 22 23  1  0
 23 24  1  0
 24 25  1  0
 24 26  1  0
 24 27  1  0
 23 28  1  0
 28 29  1  0
 29 30  1  0
 30 31  1  0
 31 32  1  0
 32 33  1  0
 33 34  1  0
 34 35  2  0
 34 36  1  0
 29 37  2  3
 37  2  1  0
 19  5  1  0
 36 30  1  0
 18 10  1  0
 18 14  1  0
  1 38  1  0
  1 39  1  0
  1 40  1  0
  2 41  1  0
  3 42  1  0
  3 43  1  0
  4 44  1  0
  4 45  1  0
  5 46  1  0
  6 47  1  0
  7 48  1  0
  7 49  1  0
  8 50  1  0
 11 51  1  0
 12 52  1  0
 13 53  1  0
 17 54  1  0
 20 55  1  0
 20 56  1  0
 21 57  1  0
 21 58  1  0
 22 59  1  0
 22 60  1  0
 23 61  1  0
 28 62  1  0
 28 63  1  0
 31 64  1  0
 31 65  1  0
 32 66  1  0
 32 67  1  0
 33 68  1  0
 36 69  1  0
 36 70  1  0
M  END
>  <Energy>  (608) 
118.87200760171683

>  <compound_id>  (608) 
2731

>  <target_id>  (608) 
1

>  <reference_id>  (608) 
202

>  <inspiration_ids>  (608) 
[180, 202]

>  <energy_score>  (608) 
-70.17430288133596

>  <distance_score>  (608) 
1.7707167976982972

>  <path>  (608) 
/opt/xchem-fragalysis-2/maxwin/BulkDock/SCRATCH/505736/C2731-P202/C2731-P202.minimised.mol

>  <scratch_subdir>  (608) 
/opt/xchem-fragalysis-2/maxwin/BulkDock/SCRATCH/505736/C2731-P202

>  <fragmenstein_runtime>  (608) 
6.122609853744507

>  <fragmenstein_outcome>  (608) 
too moved

>  <fragmenstein_mode>  (608) 
expansion

>  <fragmenstein_error>  (608) 


$$$$
C2733-P181
     RDKit          3D

 53 59  0  0  0  0  0  0  0  0999 V2000
   -2.6933   -1.8108    6.5847 O   0  0  0  0  0  0  0  0  0  0  0  0
   -3.3925   -1.3502    5.6942 C   0  0  0  0  0  0  0  0  0  0  0  0
   -3.1932   -1.3492    4.3607 N   0  0  0  0  0  0  0  0  0  0  0  0
   -3.9860   -0.4028    3.7799 C   0  0  0  0  0  0  0  0  0  0  0  0
   -3.8622   -0.0477    2.6159 O   0  0  0  0  0  0  0  0  0  0  0  0
   -5.0705   -0.0019    4.7893 C   0  0  0  0  0  0  0  0  0  0  0  0
   -6.3136   -0.7850    4.3073 C   0  0  0  0  0  0  0  0  0  0  0  0
   -7.0037    0.1657    3.3188 C   0  0  0  0  0  0  0  0  0  0  0  0
   -6.6411    1.5022    3.8824 C   0  0  0  0  0  0  0  0  0  0  0  0
   -7.2352    2.7209    3.6294 C   0  0  0  0  0  0  0  0  0  0  0  0
   -6.7952    3.8419    4.3378 C   0  0  0  0  0  0  0  0  0  0  0  0
   -5.7927    3.7371    5.3010 C   0  0  0  0  0  0  0  0  0  0  0  0
   -5.1920    2.5115    5.5274 C   0  0  0  0  0  0  0  0  0  0  0  0
   -5.5776    1.4045    4.7761 C   0  0  0  0  0  0  0  0  0  0  0  0
   -4.4397   -0.5288    5.9716 N   0  0  0  0  0  0  0  0  0  0  0  0
   -4.4173    0.0229    7.2924 N   0  0  0  0  0  0  0  0  0  0  0  0
   -5.7236   -0.2211    7.7764 C   0  0  0  0  0  0  0  0  0  0  0  0
   -6.5557    0.8839    7.7973 C   0  0  0  0  0  0  0  0  0  0  0  0
   -7.8731    0.6611    7.4911 C   0  0  0  0  0  0  0  0  0  0  0  0
   -8.7722    1.5970    7.1148 N   0  0  0  0  0  0  0  0  0  0  0  0
   -9.7959    0.8933    6.7377 C   0  0  0  0  0  0  0  0  0  0  0  0
  -11.2390    1.5870    6.1351 S   0  0  0  0  0  0  0  0  0  0  0  0
  -12.2461    0.9371    7.3754 C   0  0  0  0  0  0  0  0  0  0  0  0
  -13.2024    0.0535    7.0330 C   0  0  0  0  0  0  0  0  0  0  0  0
  -14.0320   -0.5235    8.0662 C   0  0  0  0  0  0  0  0  0  0  0  0
  -13.8502   -0.2256    9.3654 C   0  0  0  0  0  0  0  0  0  0  0  0
  -12.8236    0.6727    9.7461 C   0  0  0  0  0  0  0  0  0  0  0  0
  -12.4261    1.1132   10.9179 N   0  0  0  0  0  0  0  0  0  0  0  0
  -11.4042    2.0064   10.7027 N   0  0  0  0  0  0  0  0  0  0  0  0
  -11.1998    2.0800    9.4062 C   0  0  0  0  0  0  0  0  0  0  0  0
  -12.0632    1.2475    8.7378 N   0  0  0  0  0  0  0  0  0  0  0  0
   -9.6504   -0.4448    6.9800 N   0  0  0  0  0  0  0  0  0  0  0  0
   -8.3657   -0.6351    7.4030 C   0  0  0  0  0  0  0  0  0  0  0  0
   -7.5974   -1.7763    7.6222 C   0  0  0  0  0  0  0  0  0  0  0  0
   -6.2369   -1.5272    7.7495 C   0  0  0  0  0  0  0  0  0  0  0  0
   -5.3709   -2.5411    7.5775 F   0  0  0  0  0  0  0  0  0  0  0  0
   -2.3063   -1.5765    3.9615 H   0  0  0  0  0  0  0  0  0  0  0  0
   -7.0028   -0.9918    5.1227 H   0  0  0  0  0  0  0  0  0  0  0  0
   -6.0907   -1.7515    3.8398 H   0  0  0  0  0  0  0  0  0  0  0  0
   -6.6046    0.0574    2.3054 H   0  0  0  0  0  0  0  0  0  0  0  0
   -8.0854    0.0019    3.3080 H   0  0  0  0  0  0  0  0  0  0  0  0
   -8.0538    2.8093    2.9216 H   0  0  0  0  0  0  0  0  0  0  0  0
   -7.2737    4.8037    4.1660 H   0  0  0  0  0  0  0  0  0  0  0  0
   -5.4983    4.6092    5.8796 H   0  0  0  0  0  0  0  0  0  0  0  0
   -4.4301    2.4383    6.3006 H   0  0  0  0  0  0  0  0  0  0  0  0
   -3.7873   -0.5993    7.8309 H   0  0  0  0  0  0  0  0  0  0  0  0
   -6.1915    1.8998    7.7641 H   0  0  0  0  0  0  0  0  0  0  0  0
  -13.3979   -0.2521    6.0080 H   0  0  0  0  0  0  0  0  0  0  0  0
  -14.8230   -1.1981    7.7497 H   0  0  0  0  0  0  0  0  0  0  0  0
  -14.4835   -0.6443   10.1385 H   0  0  0  0  0  0  0  0  0  0  0  0
  -10.4603    2.7010    8.9208 H   0  0  0  0  0  0  0  0  0  0  0  0
  -10.3481   -1.1581    6.8240 H   0  0  0  0  0  0  0  0  0  0  0  0
   -7.9866   -2.7810    7.5180 H   0  0  0  0  0  0  0  0  0  0  0  0
  1  2  2  0
  2  3  1  0
  3  4  1  0
  4  5  2  0
  4  6  1  0
  6  7  1  0
  7  8  1  0
  8  9  1  0
  9 10  2  0
 10 11  1  0
 11 12  2  0
 12 13  1  0
 13 14  2  0
  6 15  1  0
 15 16  1  0
 16 17  1  0
 17 18  2  0
 18 19  1  0
 19 20  1  0
 20 21  2  0
 21 22  1  0
 22 23  1  0
 23 24  2  0
 24 25  1  0
 25 26  2  0
 26 27  1  0
 27 28  2  0
 28 29  1  0
 29 30  2  0
 30 31  1  0
 21 32  1  0
 32 33  1  0
 33 34  1  0
 34 35  2  0
 35 36  1  0
 15  2  1  0
 35 17  1  0
 14  6  1  0
 33 19  2  0
 14  9  1  0
 31 23  1  0
 31 27  1  0
  3 37  1  0
  7 38  1  0
  7 39  1  0
  8 40  1  0
  8 41  1  0
 10 42  1  0
 11 43  1  0
 12 44  1  0
 13 45  1  0
 16 46  1  0
 18 47  1  0
 24 48  1  0
 25 49  1  0
 26 50  1  0
 30 51  1  0
 32 52  1  0
 34 53  1  0
M  END
>  <Energy>  (609) 
114.77809526318708

>  <compound_id>  (609) 
2733

>  <target_id>  (609) 
1

>  <reference_id>  (609) 
181

>  <inspiration_ids>  (609) 
[181, 24]

>  <energy_score>  (609) 
-55.14137636864581

>  <distance_score>  (609) 
1.6415307226597426

>  <path>  (609) 
/opt/xchem-fragalysis-2/maxwin/BulkDock/SCRATCH/505736/C2733-P181/C2733-P181.minimised.mol

>  <scratch_subdir>  (609) 
/opt/xchem-fragalysis-2/maxwin/BulkDock/SCRATCH/505736/C2733-P181

>  <fragmenstein_runtime>  (609) 
7.466900110244751

>  <fragmenstein_outcome>  (609) 
too moved

>  <fragmenstein_mode>  (609) 
expansion

>  <fragmenstein_error>  (609) 


$$$$
C2733-P24
     RDKit          3D

 53 59  0  0  0  0  0  0  0  0999 V2000
   -3.1097   -1.3035    4.7491 O   0  0  0  0  0  0  0  0  0  0  0  0
   -3.7831   -0.3658    4.3774 C   0  0  0  0  0  0  0  0  0  0  0  0
   -3.8920    0.0996    3.1029 N   0  0  0  0  0  0  0  0  0  0  0  0
   -4.5340    1.2876    3.0957 C   0  0  0  0  0  0  0  0  0  0  0  0
   -4.5924    2.0299    2.1291 O   0  0  0  0  0  0  0  0  0  0  0  0
   -5.2099    1.4191    4.4446 C   0  0  0  0  0  0  0  0  0  0  0  0
   -6.6671    0.9434    4.2678 C   0  0  0  0  0  0  0  0  0  0  0  0
   -7.4908    2.2207    4.2205 C   0  0  0  0  0  0  0  0  0  0  0  0
   -6.6158    3.2019    4.9256 C   0  0  0  0  0  0  0  0  0  0  0  0
   -6.9660    4.4183    5.4514 C   0  0  0  0  0  0  0  0  0  0  0  0
   -5.9663    5.1998    6.0355 C   0  0  0  0  0  0  0  0  0  0  0  0
   -4.6271    4.7927    6.0446 C   0  0  0  0  0  0  0  0  0  0  0  0
   -4.2714    3.5884    5.4723 C   0  0  0  0  0  0  0  0  0  0  0  0
   -5.2895    2.7895    4.9733 C   0  0  0  0  0  0  0  0  0  0  0  0
   -4.4775    0.4568    5.2168 N   0  0  0  0  0  0  0  0  0  0  0  0
   -4.0312    0.5812    6.5811 N   0  0  0  0  0  0  0  0  0  0  0  0
   -5.0712    0.1345    7.4390 C   0  0  0  0  0  0  0  0  0  0  0  0
   -5.9607    1.1277    7.8523 C   0  0  0  0  0  0  0  0  0  0  0  0
   -7.2966    0.7740    7.7790 C   0  0  0  0  0  0  0  0  0  0  0  0
   -8.3462    1.6217    7.6227 N   0  0  0  0  0  0  0  0  0  0  0  0
   -9.3149    0.8416    7.2345 C   0  0  0  0  0  0  0  0  0  0  0  0
  -10.7486    1.4117    6.4811 S   0  0  0  0  0  0  0  0  0  0  0  0
  -11.8583    0.7157    7.5918 C   0  0  0  0  0  0  0  0  0  0  0  0
  -12.7551   -0.1844    7.1442 C   0  0  0  0  0  0  0  0  0  0  0  0
  -13.7191   -0.7411    8.0688 C   0  0  0  0  0  0  0  0  0  0  0  0
  -13.7248   -0.3951    9.3689 C   0  0  0  0  0  0  0  0  0  0  0  0
  -12.7601    0.5184    9.8608 C   0  0  0  0  0  0  0  0  0  0  0  0
  -12.5280    0.9959   11.0617 N   0  0  0  0  0  0  0  0  0  0  0  0
  -11.4915    1.8926   10.9613 N   0  0  0  0  0  0  0  0  0  0  0  0
  -11.1133    1.9321    9.7036 C   0  0  0  0  0  0  0  0  0  0  0  0
  -11.8674    1.0659    8.9524 N   0  0  0  0  0  0  0  0  0  0  0  0
   -9.0236   -0.4856    7.3905 N   0  0  0  0  0  0  0  0  0  0  0  0
   -7.6718   -0.5565    7.6140 C   0  0  0  0  0  0  0  0  0  0  0  0
   -6.7621   -1.6089    7.5671 C   0  0  0  0  0  0  0  0  0  0  0  0
   -5.4301   -1.2234    7.4514 C   0  0  0  0  0  0  0  0  0  0  0  0
   -4.5073   -2.1636    7.1887 F   0  0  0  0  0  0  0  0  0  0  0  0
   -3.2768   -0.1667    2.3565 H   0  0  0  0  0  0  0  0  0  0  0  0
   -6.9965    0.3227    5.1009 H   0  0  0  0  0  0  0  0  0  0  0  0
   -6.8341    0.3391    3.3675 H   0  0  0  0  0  0  0  0  0  0  0  0
   -7.6454    2.5466    3.1858 H   0  0  0  0  0  0  0  0  0  0  0  0
   -8.4608    2.1004    4.7002 H   0  0  0  0  0  0  0  0  0  0  0  0
   -7.9950    4.7639    5.4365 H   0  0  0  0  0  0  0  0  0  0  0  0
   -6.2327    6.1581    6.4778 H   0  0  0  0  0  0  0  0  0  0  0  0
   -3.8692    5.4394    6.4805 H   0  0  0  0  0  0  0  0  0  0  0  0
   -3.2300    3.2848    5.4440 H   0  0  0  0  0  0  0  0  0  0  0  0
   -3.7999    1.5469    6.8188 H   0  0  0  0  0  0  0  0  0  0  0  0
   -5.7071    2.1817    7.8456 H   0  0  0  0  0  0  0  0  0  0  0  0
  -12.8120   -0.5019    6.1064 H   0  0  0  0  0  0  0  0  0  0  0  0
  -14.4582   -1.4314    7.6734 H   0  0  0  0  0  0  0  0  0  0  0  0
  -14.4604   -0.7890   10.0604 H   0  0  0  0  0  0  0  0  0  0  0  0
  -10.3206    2.5506    9.3065 H   0  0  0  0  0  0  0  0  0  0  0  0
   -9.6342   -1.2574    7.1616 H   0  0  0  0  0  0  0  0  0  0  0  0
   -7.0609   -2.6406    7.4337 H   0  0  0  0  0  0  0  0  0  0  0  0
  1  2  2  0
  2  3  1  0
  3  4  1  0
  4  5  2  0
  4  6  1  0
  6  7  1  0
  7  8  1  0
  8  9  1  0
  9 10  2  0
 10 11  1  0
 11 12  2  0
 12 13  1  0
 13 14  2  0
  6 15  1  0
 15 16  1  0
 16 17  1  0
 17 18  2  0
 18 19  1  0
 19 20  1  0
 20 21  2  0
 21 22  1  0
 22 23  1  0
 23 24  2  0
 24 25  1  0
 25 26  2  0
 26 27  1  0
 27 28  2  0
 28 29  1  0
 29 30  2  0
 30 31  1  0
 21 32  1  0
 32 33  1  0
 33 34  1  0
 34 35  2  0
 35 36  1  0
 15  2  1  0
 35 17  1  0
 14  6  1  0
 33 19  2  0
 14  9  1  0
 31 23  1  0
 31 27  1  0
  3 37  1  0
  7 38  1  0
  7 39  1  0
  8 40  1  0
  8 41  1  0
 10 42  1  0
 11 43  1  0
 12 44  1  0
 13 45  1  0
 16 46  1  0
 18 47  1  0
 24 48  1  0
 25 49  1  0
 26 50  1  0
 30 51  1  0
 32 52  1  0
 34 53  1  0
M  END
>  <Energy>  (610) 
117.87151660482927

>  <compound_id>  (610) 
2733

>  <target_id>  (610) 
1

>  <reference_id>  (610) 
24

>  <inspiration_ids>  (610) 
[181, 24]

>  <energy_score>  (610) 
-52.047955027004605

>  <distance_score>  (610) 
1.878126372257463

>  <path>  (610) 
/opt/xchem-fragalysis-2/maxwin/BulkDock/SCRATCH/505736/C2733-P24/C2733-P24.minimised.mol

>  <scratch_subdir>  (610) 
/opt/xchem-fragalysis-2/maxwin/BulkDock/SCRATCH/505736/C2733-P24

>  <fragmenstein_runtime>  (610) 
6.928504705429077

>  <fragmenstein_outcome>  (610) 
too moved

>  <fragmenstein_mode>  (610) 
expansion

>  <fragmenstein_error>  (610) 


$$$$
C766-P181
     RDKit          3D

 46 51  0  0  0  0  0  0  0  0999 V2000
   -4.0627   -1.5248    7.2675 F   0  0  0  0  0  0  0  0  0  0  0  0
   -5.2233   -0.8481    7.2959 C   0  0  0  0  0  0  0  0  0  0  0  0
   -6.4213   -1.5577    7.0914 C   0  0  0  0  0  0  0  0  0  0  0  0
   -7.5832   -0.7791    7.0106 C   0  0  0  0  0  0  0  0  0  0  0  0
   -8.8913   -0.9957    6.6427 N   0  0  0  0  0  0  0  0  0  0  0  0
   -9.4875    0.2357    6.5775 C   0  0  0  0  0  0  0  0  0  0  0  0
  -10.9769    0.5840    5.8296 S   0  0  0  0  0  0  0  0  0  0  0  0
  -12.0104    0.3135    7.1825 C   0  0  0  0  0  0  0  0  0  0  0  0
  -13.0726   -0.4855    6.9652 C   0  0  0  0  0  0  0  0  0  0  0  0
  -14.0271   -0.7067    8.0220 C   0  0  0  0  0  0  0  0  0  0  0  0
  -13.8442   -0.2107    9.2570 C   0  0  0  0  0  0  0  0  0  0  0  0
  -12.7185    0.6054    9.5220 C   0  0  0  0  0  0  0  0  0  0  0  0
  -12.3254    1.2220   10.6137 N   0  0  0  0  0  0  0  0  0  0  0  0
  -11.2385    1.9907   10.2859 N   0  0  0  0  0  0  0  0  0  0  0  0
  -10.9944    1.8132    9.0052 C   0  0  0  0  0  0  0  0  0  0  0  0
  -11.8570    0.8911    8.4645 N   0  0  0  0  0  0  0  0  0  0  0  0
   -8.7530    1.1840    7.0658 N   0  0  0  0  0  0  0  0  0  0  0  0
   -7.5793    0.5776    7.2832 C   0  0  0  0  0  0  0  0  0  0  0  0
   -6.4270    1.2221    7.6184 C   0  0  0  0  0  0  0  0  0  0  0  0
   -5.2217    0.5408    7.4640 C   0  0  0  0  0  0  0  0  0  0  0  0
   -4.0312    1.4424    7.3185 C   0  0  0  0  0  0  0  0  0  0  0  0
   -4.4274    2.6576    6.4999 C   0  0  0  0  0  0  0  0  0  0  0  0
   -5.0315    2.6221    5.3200 N   0  0  0  0  0  0  0  0  0  0  0  0
   -5.5237    3.8672    5.0434 N   0  0  0  0  0  0  0  0  0  0  0  0
   -5.2058    4.6496    6.0468 C   0  0  0  0  0  0  0  0  0  0  0  0
   -4.3666    3.9671    6.8793 N   0  0  0  0  0  0  0  0  0  0  0  0
   -3.7244    4.5716    8.0154 C   0  0  0  0  0  0  0  0  0  0  0  0
   -3.9465    6.0810    8.0683 C   0  0  0  0  0  0  0  0  0  0  0  0
   -5.3285    6.4461    7.7246 N   0  0  0  0  0  0  0  0  0  0  0  0
   -5.6155    6.0486    6.3297 C   0  0  0  0  0  0  0  0  0  0  0  0
   -6.4152   -2.6230    6.8961 H   0  0  0  0  0  0  0  0  0  0  0  0
   -9.2983   -1.8686    6.3459 H   0  0  0  0  0  0  0  0  0  0  0  0
  -13.2798   -0.9653    6.0103 H   0  0  0  0  0  0  0  0  0  0  0  0
  -14.9072   -1.2915    7.7730 H   0  0  0  0  0  0  0  0  0  0  0  0
  -14.5610   -0.3880   10.0503 H   0  0  0  0  0  0  0  0  0  0  0  0
  -10.2338    2.3311    8.4435 H   0  0  0  0  0  0  0  0  0  0  0  0
   -6.5062    2.2930    7.7702 H   0  0  0  0  0  0  0  0  0  0  0  0
   -3.2559    0.8623    6.8331 H   0  0  0  0  0  0  0  0  0  0  0  0
   -3.6488    1.7355    8.2898 H   0  0  0  0  0  0  0  0  0  0  0  0
   -2.6564    4.3616    7.9405 H   0  0  0  0  0  0  0  0  0  0  0  0
   -4.1600    4.1051    8.9031 H   0  0  0  0  0  0  0  0  0  0  0  0
   -3.2557    6.5921    7.3853 H   0  0  0  0  0  0  0  0  0  0  0  0
   -3.7138    6.4493    9.0736 H   0  0  0  0  0  0  0  0  0  0  0  0
   -5.9811    5.9485    8.3332 H   0  0  0  0  0  0  0  0  0  0  0  0
   -6.6886    6.1662    6.1449 H   0  0  0  0  0  0  0  0  0  0  0  0
   -5.0953    6.7278    5.6445 H   0  0  0  0  0  0  0  0  0  0  0  0
  1  2  1  0
  2  3  2  0
  3  4  1  0
  4  5  1  0
  5  6  1  0
  6  7  1  0
  7  8  1  0
  8  9  2  0
  9 10  1  0
 10 11  2  0
 11 12  1  0
 12 13  2  0
 13 14  1  0
 14 15  2  0
 15 16  1  0
  6 17  2  0
 17 18  1  0
 18 19  1  0
 19 20  2  0
 20 21  1  0
 21 22  1  0
 22 23  2  0
 23 24  1  0
 24 25  2  0
 25 26  1  0
 26 27  1  0
 27 28  1  0
 28 29  1  0
 29 30  1  0
 20  2  1  0
 26 22  1  0
 18  4  2  0
 30 25  1  0
 16  8  1  0
 16 12  1  0
  3 31  1  0
  5 32  1  0
  9 33  1  0
 10 34  1  0
 11 35  1  0
 15 36  1  0
 19 37  1  0
 21 38  1  0
 21 39  1  0
 27 40  1  0
 27 41  1  0
 28 42  1  0
 28 43  1  0
 29 44  1  0
 30 45  1  0
 30 46  1  0
M  END
>  <Energy>  (611) 
72.387993155186223

>  <compound_id>  (611) 
766

>  <target_id>  (611) 
1

>  <reference_id>  (611) 
181

>  <inspiration_ids>  (611) 
[181, 33]

>  <energy_score>  (611) 
-13.731539351048468

>  <distance_score>  (611) 
1.251481292414934

>  <path>  (611) 
/opt/xchem-fragalysis-2/maxwin/BulkDock/SCRATCH/505736/C766-P181/C766-P181.minimised.mol

>  <scratch_subdir>  (611) 
/opt/xchem-fragalysis-2/maxwin/BulkDock/SCRATCH/505736/C766-P181

>  <fragmenstein_runtime>  (611) 
2.953742265701294

>  <fragmenstein_outcome>  (611) 
too moved

>  <fragmenstein_mode>  (611) 
expansion

>  <fragmenstein_error>  (611) 


$$$$
C766-P33
     RDKit          3D

 46 51  0  0  0  0  0  0  0  0999 V2000
   -3.9354   -1.5251    7.1266 F   0  0  0  0  0  0  0  0  0  0  0  0
   -5.1163   -0.9111    7.3075 C   0  0  0  0  0  0  0  0  0  0  0  0
   -6.2894   -1.5831    6.9228 C   0  0  0  0  0  0  0  0  0  0  0  0
   -7.4595   -0.8164    6.9674 C   0  0  0  0  0  0  0  0  0  0  0  0
   -8.7299   -0.9364    6.4472 N   0  0  0  0  0  0  0  0  0  0  0  0
   -9.3498    0.2675    6.6521 C   0  0  0  0  0  0  0  0  0  0  0  0
  -10.8177    0.7542    5.9227 S   0  0  0  0  0  0  0  0  0  0  0  0
  -11.8412    0.3910    7.2682 C   0  0  0  0  0  0  0  0  0  0  0  0
  -12.8153   -0.5193    7.0744 C   0  0  0  0  0  0  0  0  0  0  0  0
  -13.7245   -0.8284    8.1525 C   0  0  0  0  0  0  0  0  0  0  0  0
  -13.5872   -0.2908    9.3754 C   0  0  0  0  0  0  0  0  0  0  0  0
  -12.5563    0.6494    9.6108 C   0  0  0  0  0  0  0  0  0  0  0  0
  -12.2278    1.3340   10.6837 N   0  0  0  0  0  0  0  0  0  0  0  0
  -11.2130    2.1886   10.3340 N   0  0  0  0  0  0  0  0  0  0  0  0
  -10.9482    1.9961    9.0590 C   0  0  0  0  0  0  0  0  0  0  0  0
  -11.7342    0.9959    8.5411 N   0  0  0  0  0  0  0  0  0  0  0  0
   -8.6747    1.0607    7.4261 N   0  0  0  0  0  0  0  0  0  0  0  0
   -7.4989    0.4276    7.5764 C   0  0  0  0  0  0  0  0  0  0  0  0
   -6.3734    0.9863    8.1262 C   0  0  0  0  0  0  0  0  0  0  0  0
   -5.1552    0.4063    7.7794 C   0  0  0  0  0  0  0  0  0  0  0  0
   -4.0330    1.3963    7.6208 C   0  0  0  0  0  0  0  0  0  0  0  0
   -4.5266    2.5835    6.8178 C   0  0  0  0  0  0  0  0  0  0  0  0
   -5.2875    2.4988    5.7347 N   0  0  0  0  0  0  0  0  0  0  0  0
   -5.7301    3.7462    5.4052 N   0  0  0  0  0  0  0  0  0  0  0  0
   -5.2411    4.5822    6.2883 C   0  0  0  0  0  0  0  0  0  0  0  0
   -4.3465    3.9128    7.0768 N   0  0  0  0  0  0  0  0  0  0  0  0
   -3.4993    4.5778    8.0336 C   0  0  0  0  0  0  0  0  0  0  0  0
   -3.5909    6.0981    7.9174 C   0  0  0  0  0  0  0  0  0  0  0  0
   -4.9810    6.5477    7.7437 N   0  0  0  0  0  0  0  0  0  0  0  0
   -5.5152    6.0300    6.4677 C   0  0  0  0  0  0  0  0  0  0  0  0
   -6.2505   -2.5676    6.4733 H   0  0  0  0  0  0  0  0  0  0  0  0
   -9.0889   -1.6929    5.8827 H   0  0  0  0  0  0  0  0  0  0  0  0
  -12.9661   -1.0370    6.1294 H   0  0  0  0  0  0  0  0  0  0  0  0
  -14.5396   -1.5046    7.9375 H   0  0  0  0  0  0  0  0  0  0  0  0
  -14.2717   -0.5288   10.1810 H   0  0  0  0  0  0  0  0  0  0  0  0
  -10.2209    2.5458    8.4810 H   0  0  0  0  0  0  0  0  0  0  0  0
   -6.4829    2.0097    8.4603 H   0  0  0  0  0  0  0  0  0  0  0  0
   -3.1905    0.9008    7.1493 H   0  0  0  0  0  0  0  0  0  0  0  0
   -3.7030    1.7205    8.5942 H   0  0  0  0  0  0  0  0  0  0  0  0
   -2.4720    4.2475    7.8718 H   0  0  0  0  0  0  0  0  0  0  0  0
   -3.8416    4.2774    9.0243 H   0  0  0  0  0  0  0  0  0  0  0  0
   -2.9833    6.4553    7.0760 H   0  0  0  0  0  0  0  0  0  0  0  0
   -3.1724    6.5590    8.8188 H   0  0  0  0  0  0  0  0  0  0  0  0
   -5.5618    6.1833    8.5010 H   0  0  0  0  0  0  0  0  0  0  0  0
   -6.5950    6.2107    6.4388 H   0  0  0  0  0  0  0  0  0  0  0  0
   -5.0734    6.5909    5.6361 H   0  0  0  0  0  0  0  0  0  0  0  0
  1  2  1  0
  2  3  2  0
  3  4  1  0
  4  5  1  0
  5  6  1  0
  6  7  1  0
  7  8  1  0
  8  9  2  0
  9 10  1  0
 10 11  2  0
 11 12  1  0
 12 13  2  0
 13 14  1  0
 14 15  2  0
 15 16  1  0
  6 17  2  0
 17 18  1  0
 18 19  1  0
 19 20  2  0
 20 21  1  0
 21 22  1  0
 22 23  2  0
 23 24  1  0
 24 25  2  0
 25 26  1  0
 26 27  1  0
 27 28  1  0
 28 29  1  0
 29 30  1  0
 20  2  1  0
 26 22  1  0
 18  4  2  0
 30 25  1  0
 16  8  1  0
 16 12  1  0
  3 31  1  0
  5 32  1  0
  9 33  1  0
 10 34  1  0
 11 35  1  0
 15 36  1  0
 19 37  1  0
 21 38  1  0
 21 39  1  0
 27 40  1  0
 27 41  1  0
 28 42  1  0
 28 43  1  0
 29 44  1  0
 30 45  1  0
 30 46  1  0
M  END
>  <Energy>  (612) 
73.406300353378327

>  <compound_id>  (612) 
766

>  <target_id>  (612) 
1

>  <reference_id>  (612) 
33

>  <inspiration_ids>  (612) 
[181, 33]

>  <energy_score>  (612) 
-12.713232152857529

>  <distance_score>  (612) 
1.1899700722376967

>  <path>  (612) 
/opt/xchem-fragalysis-2/maxwin/BulkDock/SCRATCH/505736/C766-P33/C766-P33.minimised.mol

>  <scratch_subdir>  (612) 
/opt/xchem-fragalysis-2/maxwin/BulkDock/SCRATCH/505736/C766-P33

>  <fragmenstein_runtime>  (612) 
2.4439637660980225

>  <fragmenstein_outcome>  (612) 
too moved

>  <fragmenstein_mode>  (612) 
expansion

>  <fragmenstein_error>  (612) 


$$$$
C928-P181
     RDKit          3D

 49 53  0  0  0  0  0  0  0  0999 V2000
   -8.2153   -3.8363    7.8810 C   0  0  0  0  0  0  0  0  0  0  0  0
   -8.2082   -3.2490    6.5407 C   0  0  0  0  0  0  0  0  0  0  0  0
   -7.3120   -3.7027    5.5900 C   0  0  0  0  0  0  0  0  0  0  0  0
   -7.1518   -2.9874    4.4203 C   0  0  0  0  0  0  0  0  0  0  0  0
   -7.8479   -1.7917    4.2202 C   0  0  0  0  0  0  0  0  0  0  0  0
   -7.5654   -0.9166    3.0300 C   0  0  0  0  0  0  0  0  0  0  0  0
   -5.8651   -0.2888    3.0083 S   0  0  0  0  0  0  0  0  0  0  0  0
   -4.9144   -1.3598    3.2263 O   0  0  0  0  0  0  0  0  0  0  0  0
   -5.7583    0.5062    1.7969 O   0  0  0  0  0  0  0  0  0  0  0  0
   -5.7322    0.8392    4.2409 N   0  0  0  0  0  0  0  0  0  0  0  0
   -5.7005    0.4039    5.5870 C   0  0  0  0  0  0  0  0  0  0  0  0
   -4.7317   -0.4396    6.1200 C   0  0  0  0  0  0  0  0  0  0  0  0
   -4.9098   -0.9339    7.3999 C   0  0  0  0  0  0  0  0  0  0  0  0
   -3.9939   -1.7750    7.8991 F   0  0  0  0  0  0  0  0  0  0  0  0
   -6.0387   -0.6106    8.1622 C   0  0  0  0  0  0  0  0  0  0  0  0
   -6.9770    0.2601    7.6128 C   0  0  0  0  0  0  0  0  0  0  0  0
   -8.2012    0.7492    8.0082 N   0  0  0  0  0  0  0  0  0  0  0  0
   -8.6771    1.5296    6.9835 C   0  0  0  0  0  0  0  0  0  0  0  0
  -10.1731    2.3799    6.9594 S   0  0  0  0  0  0  0  0  0  0  0  0
  -11.2359    1.2273    7.6745 C   0  0  0  0  0  0  0  0  0  0  0  0
  -11.9124    0.3265    6.9313 C   0  0  0  0  0  0  0  0  0  0  0  0
  -12.8869   -0.5437    7.5731 C   0  0  0  0  0  0  0  0  0  0  0  0
  -13.1449   -0.4432    8.8895 C   0  0  0  0  0  0  0  0  0  0  0  0
  -12.4323    0.4869    9.6831 C   0  0  0  0  0  0  0  0  0  0  0  0
  -12.4683    0.7773   10.9643 N   0  0  0  0  0  0  0  0  0  0  0  0
  -11.5891    1.8112   11.1835 N   0  0  0  0  0  0  0  0  0  0  0  0
  -11.0307    2.1142   10.0355 C   0  0  0  0  0  0  0  0  0  0  0  0
  -11.5117    1.2992    9.0448 N   0  0  0  0  0  0  0  0  0  0  0  0
   -7.8350    1.6001    5.9847 N   0  0  0  0  0  0  0  0  0  0  0  0
   -6.7989    0.7933    6.3551 C   0  0  0  0  0  0  0  0  0  0  0  0
   -8.8293   -1.4140    5.1429 C   0  0  0  0  0  0  0  0  0  0  0  0
   -8.9988   -2.1470    6.2993 C   0  0  0  0  0  0  0  0  0  0  0  0
   -9.8662   -1.7598    7.2374 F   0  0  0  0  0  0  0  0  0  0  0  0
   -9.2034   -4.1359    8.1977 H   0  0  0  0  0  0  0  0  0  0  0  0
   -7.8741   -3.0249    8.5104 H   0  0  0  0  0  0  0  0  0  0  0  0
   -7.5230   -4.6737    7.9568 H   0  0  0  0  0  0  0  0  0  0  0  0
   -6.6886   -4.5733    5.7778 H   0  0  0  0  0  0  0  0  0  0  0  0
   -6.4169   -3.3369    3.6960 H   0  0  0  0  0  0  0  0  0  0  0  0
   -7.7038   -1.4903    2.1071 H   0  0  0  0  0  0  0  0  0  0  0  0
   -8.2261   -0.0444    2.9853 H   0  0  0  0  0  0  0  0  0  0  0  0
   -6.3793    1.6217    4.0955 H   0  0  0  0  0  0  0  0  0  0  0  0
   -3.8771   -0.7558    5.5328 H   0  0  0  0  0  0  0  0  0  0  0  0
   -6.1805   -1.0290    9.1359 H   0  0  0  0  0  0  0  0  0  0  0  0
   -8.6749    0.5376    8.8755 H   0  0  0  0  0  0  0  0  0  0  0  0
  -11.7969    0.2392    5.8557 H   0  0  0  0  0  0  0  0  0  0  0  0
  -13.4268   -1.2587    6.9550 H   0  0  0  0  0  0  0  0  0  0  0  0
  -13.8976   -1.0473    9.3697 H   0  0  0  0  0  0  0  0  0  0  0  0
  -10.3010    2.8954    9.8804 H   0  0  0  0  0  0  0  0  0  0  0  0
   -9.4266   -0.5202    4.9901 H   0  0  0  0  0  0  0  0  0  0  0  0
  1  2  1  0
  2  3  2  0
  3  4  1  0
  4  5  2  0
  5  6  1  0
  6  7  1  0
  7  8  2  0
  7  9  2  0
  7 10  1  0
 10 11  1  0
 11 12  2  0
 12 13  1  0
 13 14  1  0
 13 15  2  0
 15 16  1  0
 16 17  1  0
 17 18  1  0
 18 19  1  0
 19 20  1  0
 20 21  2  0
 21 22  1  0
 22 23  2  0
 23 24  1  0
 24 25  2  0
 25 26  1  0
 26 27  2  0
 27 28  1  0
 18 29  2  0
 29 30  1  0
  5 31  1  0
 31 32  2  0
 32 33  1  0
 32  2  1  0
 30 11  1  0
 30 16  2  0
 28 20  1  0
 28 24  1  0
  1 34  1  0
  1 35  1  0
  1 36  1  0
  3 37  1  0
  4 38  1  0
  6 39  1  0
  6 40  1  0
 10 41  1  0
 12 42  1  0
 15 43  1  0
 17 44  1  0
 21 45  1  0
 22 46  1  0
 23 47  1  0
 27 48  1  0
 31 49  1  0
M  END
>  <Energy>  (613) 
46.437686949180218

>  <compound_id>  (613) 
928

>  <target_id>  (613) 
1

>  <reference_id>  (613) 
181

>  <inspiration_ids>  (613) 
[181, 51]

>  <energy_score>  (613) 
-49.323313746159386

>  <distance_score>  (613) 
1.6928768160334344

>  <path>  (613) 
/opt/xchem-fragalysis-2/maxwin/BulkDock/SCRATCH/505736/C928-P181/C928-P181.minimised.mol

>  <scratch_subdir>  (613) 
/opt/xchem-fragalysis-2/maxwin/BulkDock/SCRATCH/505736/C928-P181

>  <fragmenstein_runtime>  (613) 
3.955228090286255

>  <fragmenstein_outcome>  (613) 
too moved

>  <fragmenstein_mode>  (613) 
expansion

>  <fragmenstein_error>  (613) 


$$$$
C928-P51
     RDKit          3D

 49 53  0  0  0  0  0  0  0  0999 V2000
  -12.0388   -2.7249    6.9667 C   0  0  0  0  0  0  0  0  0  0  0  0
  -10.5514   -2.7735    6.7242 C   0  0  0  0  0  0  0  0  0  0  0  0
  -10.1302   -3.2693    5.4896 C   0  0  0  0  0  0  0  0  0  0  0  0
   -9.5214   -2.3705    4.6277 C   0  0  0  0  0  0  0  0  0  0  0  0
   -9.2907   -1.0672    5.0701 C   0  0  0  0  0  0  0  0  0  0  0  0
   -8.9272    0.0952    4.1896 C   0  0  0  0  0  0  0  0  0  0  0  0
   -7.1876    0.0119    3.8616 S   0  0  0  0  0  0  0  0  0  0  0  0
   -6.8045   -1.3274    4.2293 O   0  0  0  0  0  0  0  0  0  0  0  0
   -7.0379    0.5306    2.5146 O   0  0  0  0  0  0  0  0  0  0  0  0
   -6.3662    1.1219    4.8568 N   0  0  0  0  0  0  0  0  0  0  0  0
   -6.2728    0.8459    6.2508 C   0  0  0  0  0  0  0  0  0  0  0  0
   -5.4102   -0.0730    6.8267 C   0  0  0  0  0  0  0  0  0  0  0  0
   -5.6175   -0.5842    8.0882 C   0  0  0  0  0  0  0  0  0  0  0  0
   -4.7501   -1.5008    8.5357 F   0  0  0  0  0  0  0  0  0  0  0  0
   -6.6936   -0.1608    8.8538 C   0  0  0  0  0  0  0  0  0  0  0  0
   -7.4454    0.8902    8.3327 C   0  0  0  0  0  0  0  0  0  0  0  0
   -8.5647    1.5536    8.7702 N   0  0  0  0  0  0  0  0  0  0  0  0
   -8.9972    2.3494    7.7398 C   0  0  0  0  0  0  0  0  0  0  0  0
  -10.5202    3.1433    7.6631 S   0  0  0  0  0  0  0  0  0  0  0  0
  -11.5892    1.8469    8.0774 C   0  0  0  0  0  0  0  0  0  0  0  0
  -12.2935    1.1832    7.1369 C   0  0  0  0  0  0  0  0  0  0  0  0
  -13.2968    0.2122    7.5504 C   0  0  0  0  0  0  0  0  0  0  0  0
  -13.4950   -0.0907    8.8471 C   0  0  0  0  0  0  0  0  0  0  0  0
  -12.7287    0.5681    9.8392 C   0  0  0  0  0  0  0  0  0  0  0  0
  -12.7005    0.4776   11.1496 N   0  0  0  0  0  0  0  0  0  0  0  0
  -11.8397    1.4408   11.6175 N   0  0  0  0  0  0  0  0  0  0  0  0
  -11.3660    2.0929   10.5836 C   0  0  0  0  0  0  0  0  0  0  0  0
  -11.8401    1.5459    9.4213 N   0  0  0  0  0  0  0  0  0  0  0  0
   -8.1612    2.3537    6.7345 N   0  0  0  0  0  0  0  0  0  0  0  0
   -7.2321    1.4145    7.0708 C   0  0  0  0  0  0  0  0  0  0  0  0
   -9.3970   -0.8194    6.4219 C   0  0  0  0  0  0  0  0  0  0  0  0
   -9.8679   -1.7412    7.2989 C   0  0  0  0  0  0  0  0  0  0  0  0
  -10.0668   -1.3753    8.5645 F   0  0  0  0  0  0  0  0  0  0  0  0
  -12.4732   -3.6952    6.9281 H   0  0  0  0  0  0  0  0  0  0  0  0
  -12.5135   -2.1158    6.1900 H   0  0  0  0  0  0  0  0  0  0  0  0
  -12.2948   -2.2876    7.9280 H   0  0  0  0  0  0  0  0  0  0  0  0
  -10.5168   -4.2042    5.0941 H   0  0  0  0  0  0  0  0  0  0  0  0
   -9.3530   -2.6507    3.5914 H   0  0  0  0  0  0  0  0  0  0  0  0
   -9.4535    0.0033    3.2331 H   0  0  0  0  0  0  0  0  0  0  0  0
   -9.1813    1.0739    4.6021 H   0  0  0  0  0  0  0  0  0  0  0  0
   -6.7236    2.0633    4.6661 H   0  0  0  0  0  0  0  0  0  0  0  0
   -4.5193   -0.3990    6.3443 H   0  0  0  0  0  0  0  0  0  0  0  0
   -6.9190   -0.5779    9.8208 H   0  0  0  0  0  0  0  0  0  0  0  0
   -9.0360    1.3749    9.6448 H   0  0  0  0  0  0  0  0  0  0  0  0
  -12.1872    1.3800    6.0743 H   0  0  0  0  0  0  0  0  0  0  0  0
  -13.8888   -0.2675    6.7757 H   0  0  0  0  0  0  0  0  0  0  0  0
  -14.2364   -0.8178    9.1560 H   0  0  0  0  0  0  0  0  0  0  0  0
  -10.6985    2.9408   10.6337 H   0  0  0  0  0  0  0  0  0  0  0  0
   -9.2941    0.1742    6.7758 H   0  0  0  0  0  0  0  0  0  0  0  0
  1  2  1  0
  2  3  2  0
  3  4  1  0
  4  5  2  0
  5  6  1  0
  6  7  1  0
  7  8  2  0
  7  9  2  0
  7 10  1  0
 10 11  1  0
 11 12  2  0
 12 13  1  0
 13 14  1  0
 13 15  2  0
 15 16  1  0
 16 17  1  0
 17 18  1  0
 18 19  1  0
 19 20  1  0
 20 21  2  0
 21 22  1  0
 22 23  2  0
 23 24  1  0
 24 25  2  0
 25 26  1  0
 26 27  2  0
 27 28  1  0
 18 29  2  0
 29 30  1  0
  5 31  1  0
 31 32  2  0
 32 33  1  0
 32  2  1  0
 30 11  1  0
 30 16  2  0
 28 20  1  0
 28 24  1  0
  1 34  1  0
  1 35  1  0
  1 36  1  0
  3 37  1  0
  4 38  1  0
  6 39  1  0
  6 40  1  0
 10 41  1  0
 12 42  1  0
 15 43  1  0
 17 44  1  0
 21 45  1  0
 22 46  1  0
 23 47  1  0
 27 48  1  0
 31 49  1  0
M  END
>  <Energy>  (614) 
106.43343543305849

>  <compound_id>  (614) 
928

>  <target_id>  (614) 
1

>  <reference_id>  (614) 
51

>  <inspiration_ids>  (614) 
[181, 51]

>  <energy_score>  (614) 
10.672434737717538

>  <distance_score>  (614) 
1.9148085075380403

>  <path>  (614) 
/opt/xchem-fragalysis-2/maxwin/BulkDock/SCRATCH/505736/C928-P51/C928-P51.minimised.mol

>  <scratch_subdir>  (614) 
/opt/xchem-fragalysis-2/maxwin/BulkDock/SCRATCH/505736/C928-P51

>  <fragmenstein_runtime>  (614) 
2.9117555618286133

>  <fragmenstein_outcome>  (614) 
too moved

>  <fragmenstein_mode>  (614) 
expansion

>  <fragmenstein_error>  (614) 


$$$$
C2735-P181
     RDKit          3D

 46 49  0  0  0  0  0  0  0  0999 V2000
  -10.3543   -1.9998    7.0976 C   0  0  0  0  0  0  0  0  0  0  0  0
   -9.3419   -2.5881    6.1756 C   0  0  0  0  0  0  0  0  0  0  0  0
   -9.3455   -2.3452    5.0378 O   0  0  0  0  0  0  0  0  0  0  0  0
   -8.4061   -3.4851    6.9994 N   0  0  0  0  0  0  0  0  0  0  0  0
   -7.3313   -4.3505    6.5819 C   0  0  0  0  0  0  0  0  0  0  0  0
   -6.3729   -3.5421    5.6891 C   0  0  0  0  0  0  0  0  0  0  0  0
   -6.3992   -3.5024    4.5215 O   0  0  0  0  0  0  0  0  0  0  0  0
   -5.4897   -2.7596    6.7058 N   0  0  0  0  0  0  0  0  0  0  0  0
   -4.5810   -1.7590    6.5051 N   0  0  0  0  0  0  0  0  0  0  0  0
   -4.1842   -1.5394    5.0886 C   0  0  0  0  0  0  0  0  0  0  0  0
   -3.9837   -1.2488    3.9404 C   0  0  0  0  0  0  0  0  0  0  0  0
   -3.7890   -0.6651    2.1318 Br  0  0  0  0  0  0  0  0  0  0  0  0
   -5.1846   -0.5576    7.0559 C   0  0  0  0  0  0  0  0  0  0  0  0
   -4.5584    0.6801    6.8890 C   0  0  0  0  0  0  0  0  0  0  0  0
   -5.2814    1.8823    6.9051 C   0  0  0  0  0  0  0  0  0  0  0  0
   -6.6632    1.8077    7.1089 C   0  0  0  0  0  0  0  0  0  0  0  0
   -7.6495    2.7446    6.9410 N   0  0  0  0  0  0  0  0  0  0  0  0
   -8.7753    2.1011    7.1622 C   0  0  0  0  0  0  0  0  0  0  0  0
  -10.3455    2.6963    6.7387 S   0  0  0  0  0  0  0  0  0  0  0  0
  -11.4326    1.5885    7.5079 C   0  0  0  0  0  0  0  0  0  0  0  0
  -12.2630    0.8204    6.7685 C   0  0  0  0  0  0  0  0  0  0  0  0
  -13.1869   -0.0954    7.4269 C   0  0  0  0  0  0  0  0  0  0  0  0
  -13.2541   -0.1720    8.7679 C   0  0  0  0  0  0  0  0  0  0  0  0
  -12.4187    0.6561    9.5587 C   0  0  0  0  0  0  0  0  0  0  0  0
  -12.2916    0.7985   10.8581 N   0  0  0  0  0  0  0  0  0  0  0  0
  -11.3629    1.7866   11.0794 N   0  0  0  0  0  0  0  0  0  0  0  0
  -10.9266    2.2045    9.9141 C   0  0  0  0  0  0  0  0  0  0  0  0
  -11.5476    1.5193    8.9043 N   0  0  0  0  0  0  0  0  0  0  0  0
   -8.5415    0.8611    7.6760 N   0  0  0  0  0  0  0  0  0  0  0  0
   -7.2090    0.6042    7.5165 C   0  0  0  0  0  0  0  0  0  0  0  0
   -6.4872   -0.5734    7.6028 C   0  0  0  0  0  0  0  0  0  0  0  0
  -10.6201   -1.0379    6.6720 H   0  0  0  0  0  0  0  0  0  0  0  0
   -9.9450   -1.8226    8.0918 H   0  0  0  0  0  0  0  0  0  0  0  0
  -11.2408   -2.6339    7.1223 H   0  0  0  0  0  0  0  0  0  0  0  0
   -8.7417   -3.5358    7.9580 H   0  0  0  0  0  0  0  0  0  0  0  0
   -6.8538   -4.7212    7.4798 H   0  0  0  0  0  0  0  0  0  0  0  0
   -7.7825   -5.1704    6.0645 H   0  0  0  0  0  0  0  0  0  0  0  0
   -5.6684   -3.0946    7.6324 H   0  0  0  0  0  0  0  0  0  0  0  0
   -3.5094    0.7034    6.6462 H   0  0  0  0  0  0  0  0  0  0  0  0
   -4.8076    2.8294    6.6733 H   0  0  0  0  0  0  0  0  0  0  0  0
  -12.2690    0.8391    5.6810 H   0  0  0  0  0  0  0  0  0  0  0  0
  -13.8234   -0.7196    6.8019 H   0  0  0  0  0  0  0  0  0  0  0  0
  -13.9479   -0.8380    9.2641 H   0  0  0  0  0  0  0  0  0  0  0  0
  -10.1914    2.9818    9.7595 H   0  0  0  0  0  0  0  0  0  0  0  0
   -9.2406    0.1906    7.9415 H   0  0  0  0  0  0  0  0  0  0  0  0
   -7.0155   -1.4736    7.8709 H   0  0  0  0  0  0  0  0  0  0  0  0
  1  2  1  0
  2  3  2  0
  2  4  1  0
  4  5  1  0
  5  6  1  0
  6  7  2  0
  6  8  1  0
  8  9  1  0
  9 10  1  0
 10 11  3  0
 11 12  1  0
  9 13  1  0
 13 14  2  0
 14 15  1  0
 15 16  2  0
 16 17  1  0
 17 18  2  0
 18 19  1  0
 19 20  1  0
 20 21  2  0
 21 22  1  0
 22 23  2  0
 23 24  1  0
 24 25  2  0
 25 26  1  0
 26 27  2  0
 27 28  1  0
 18 29  1  0
 29 30  1  0
 30 31  2  0
 31 13  1  0
 30 16  1  0
 28 20  1  0
 28 24  1  0
  1 32  1  0
  1 33  1  0
  1 34  1  0
  4 35  1  0
  5 36  1  0
  5 37  1  0
  8 38  1  0
 14 39  1  0
 15 40  1  0
 21 41  1  0
 22 42  1  0
 23 43  1  0
 27 44  1  0
 29 45  1  0
 31 46  1  0
M  END
>  <Energy>  (615) 
121.62720754396965

>  <compound_id>  (615) 
2735

>  <target_id>  (615) 
1

>  <reference_id>  (615) 
181

>  <inspiration_ids>  (615) 
[181, 69]

>  <energy_score>  (615) 
33.56465137109893

>  <distance_score>  (615) 
1.8142091744526054

>  <path>  (615) 
/opt/xchem-fragalysis-2/maxwin/BulkDock/SCRATCH/505736/C2735-P181/C2735-P181.minimised.mol

>  <scratch_subdir>  (615) 
/opt/xchem-fragalysis-2/maxwin/BulkDock/SCRATCH/505736/C2735-P181

>  <fragmenstein_runtime>  (615) 
5.193752765655518

>  <fragmenstein_outcome>  (615) 
too moved

>  <fragmenstein_mode>  (615) 
expansion

>  <fragmenstein_error>  (615) 


$$$$
C2735-P69
     RDKit          3D

 46 49  0  0  0  0  0  0  0  0999 V2000
   -7.5611   -0.7273    0.5386 C   0  0  0  0  0  0  0  0  0  0  0  0
   -7.5441   -1.6586    1.7314 C   0  0  0  0  0  0  0  0  0  0  0  0
   -8.0213   -1.3916    2.7602 O   0  0  0  0  0  0  0  0  0  0  0  0
   -6.7730   -2.9214    1.2824 N   0  0  0  0  0  0  0  0  0  0  0  0
   -6.5117   -4.1607    1.9818 C   0  0  0  0  0  0  0  0  0  0  0  0
   -5.2688   -4.1049    2.8826 C   0  0  0  0  0  0  0  0  0  0  0  0
   -4.4169   -4.9031    2.8439 O   0  0  0  0  0  0  0  0  0  0  0  0
   -5.4369   -2.8560    3.7896 N   0  0  0  0  0  0  0  0  0  0  0  0
   -4.5834   -2.3066    4.7260 N   0  0  0  0  0  0  0  0  0  0  0  0
   -3.8314   -1.2176    4.0410 C   0  0  0  0  0  0  0  0  0  0  0  0
   -3.3618   -0.3436    3.3641 C   0  0  0  0  0  0  0  0  0  0  0  0
   -2.7211    1.0081    2.1789 Br  0  0  0  0  0  0  0  0  0  0  0  0
   -5.2570   -1.8242    5.9111 C   0  0  0  0  0  0  0  0  0  0  0  0
   -4.5408   -1.1027    6.8856 C   0  0  0  0  0  0  0  0  0  0  0  0
   -5.1777   -0.1870    7.7475 C   0  0  0  0  0  0  0  0  0  0  0  0
   -6.5439    0.0314    7.5551 C   0  0  0  0  0  0  0  0  0  0  0  0
   -7.3661    1.0728    7.9278 N   0  0  0  0  0  0  0  0  0  0  0  0
   -8.5199    0.7951    7.3623 C   0  0  0  0  0  0  0  0  0  0  0  0
   -9.8276    1.8794    7.0392 S   0  0  0  0  0  0  0  0  0  0  0  0
  -11.1044    0.9380    7.7334 C   0  0  0  0  0  0  0  0  0  0  0  0
  -11.8495    0.0951    6.9856 C   0  0  0  0  0  0  0  0  0  0  0  0
  -12.9278   -0.6551    7.6119 C   0  0  0  0  0  0  0  0  0  0  0  0
  -13.2275   -0.4975    8.9137 C   0  0  0  0  0  0  0  0  0  0  0  0
  -12.4727    0.4091    9.7006 C   0  0  0  0  0  0  0  0  0  0  0  0
  -12.5735    0.7866   10.9544 N   0  0  0  0  0  0  0  0  0  0  0  0
  -11.5942    1.7237   11.1865 N   0  0  0  0  0  0  0  0  0  0  0  0
  -10.9028    1.8719   10.0794 C   0  0  0  0  0  0  0  0  0  0  0  0
  -11.4273    1.0862    9.0883 N   0  0  0  0  0  0  0  0  0  0  0  0
   -8.5373   -0.4596    6.8313 N   0  0  0  0  0  0  0  0  0  0  0  0
   -7.2407   -0.8847    6.7859 C   0  0  0  0  0  0  0  0  0  0  0  0
   -6.6508   -1.9005    6.0432 C   0  0  0  0  0  0  0  0  0  0  0  0
   -8.0825    0.1963    0.8067 H   0  0  0  0  0  0  0  0  0  0  0  0
   -8.0899   -1.1975   -0.2949 H   0  0  0  0  0  0  0  0  0  0  0  0
   -6.5377   -0.4783    0.2448 H   0  0  0  0  0  0  0  0  0  0  0  0
   -6.5674   -2.8584    0.2898 H   0  0  0  0  0  0  0  0  0  0  0  0
   -7.3786   -4.3723    2.6099 H   0  0  0  0  0  0  0  0  0  0  0  0
   -6.3880   -4.9518    1.2374 H   0  0  0  0  0  0  0  0  0  0  0  0
   -6.3409   -2.4256    3.6115 H   0  0  0  0  0  0  0  0  0  0  0  0
   -3.4544   -1.1583    6.9027 H   0  0  0  0  0  0  0  0  0  0  0  0
   -4.5918    0.4331    8.4133 H   0  0  0  0  0  0  0  0  0  0  0  0
  -11.6925   -0.0435    5.9199 H   0  0  0  0  0  0  0  0  0  0  0  0
  -13.4998   -1.3405    6.9971 H   0  0  0  0  0  0  0  0  0  0  0  0
  -14.0393   -1.0395    9.3828 H   0  0  0  0  0  0  0  0  0  0  0  0
  -10.0483    2.5212    9.9507 H   0  0  0  0  0  0  0  0  0  0  0  0
   -9.2957   -0.8563    6.2994 H   0  0  0  0  0  0  0  0  0  0  0  0
   -7.2721   -2.5305    5.4191 H   0  0  0  0  0  0  0  0  0  0  0  0
  1  2  1  0
  2  3  2  0
  2  4  1  0
  4  5  1  0
  5  6  1  0
  6  7  2  0
  6  8  1  0
  8  9  1  0
  9 10  1  0
 10 11  3  0
 11 12  1  0
  9 13  1  0
 13 14  2  0
 14 15  1  0
 15 16  2  0
 16 17  1  0
 17 18  2  0
 18 19  1  0
 19 20  1  0
 20 21  2  0
 21 22  1  0
 22 23  2  0
 23 24  1  0
 24 25  2  0
 25 26  1  0
 26 27  2  0
 27 28  1  0
 18 29  1  0
 29 30  1  0
 30 31  2  0
 31 13  1  0
 30 16  1  0
 28 20  1  0
 28 24  1  0
  1 32  1  0
  1 33  1  0
  1 34  1  0
  4 35  1  0
  5 36  1  0
  5 37  1  0
  8 38  1  0
 14 39  1  0
 15 40  1  0
 21 41  1  0
 22 42  1  0
 23 43  1  0
 27 44  1  0
 29 45  1  0
 31 46  1  0
M  END
>  <Energy>  (616) 
99.623119980801349

>  <compound_id>  (616) 
2735

>  <target_id>  (616) 
1

>  <reference_id>  (616) 
69

>  <inspiration_ids>  (616) 
[181, 69]

>  <energy_score>  (616) 
11.560563807930635

>  <distance_score>  (616) 
3.821331053072592

>  <path>  (616) 
/opt/xchem-fragalysis-2/maxwin/BulkDock/SCRATCH/505736/C2735-P69/C2735-P69.minimised.mol

>  <scratch_subdir>  (616) 
/opt/xchem-fragalysis-2/maxwin/BulkDock/SCRATCH/505736/C2735-P69

>  <fragmenstein_runtime>  (616) 
4.197861433029175

>  <fragmenstein_outcome>  (616) 
too moved

>  <fragmenstein_mode>  (616) 
expansion

>  <fragmenstein_error>  (616) 


$$$$
C1246-P181
     RDKit          3D

 49 54  0  0  0  0  0  0  0  0999 V2000
   -9.1919   -3.9342    8.2102 F   0  0  0  0  0  0  0  0  0  0  0  0
   -8.9833   -3.2064    7.1143 C   0  0  0  0  0  0  0  0  0  0  0  0
   -7.7366   -3.3240    6.5461 C   0  0  0  0  0  0  0  0  0  0  0  0
   -7.3944   -2.4483    5.5362 C   0  0  0  0  0  0  0  0  0  0  0  0
   -6.1233   -2.2443    5.1023 O   0  0  0  0  0  0  0  0  0  0  0  0
   -5.0458   -2.7218    5.9134 C   0  0  0  0  0  0  0  0  0  0  0  0
   -4.7578   -2.1171    7.1916 O   0  0  0  0  0  0  0  0  0  0  0  0
   -5.2935   -0.8706    7.3197 C   0  0  0  0  0  0  0  0  0  0  0  0
   -4.6768    0.2316    6.7490 C   0  0  0  0  0  0  0  0  0  0  0  0
   -5.3783    1.4354    6.6208 C   0  0  0  0  0  0  0  0  0  0  0  0
   -6.7315    1.4527    6.9881 C   0  0  0  0  0  0  0  0  0  0  0  0
   -7.6976    2.3889    6.7425 N   0  0  0  0  0  0  0  0  0  0  0  0
   -8.8220    1.8441    7.1548 C   0  0  0  0  0  0  0  0  0  0  0  0
  -10.3741    2.5240    6.7969 S   0  0  0  0  0  0  0  0  0  0  0  0
  -11.4902    1.6179    7.7586 C   0  0  0  0  0  0  0  0  0  0  0  0
  -12.5523    1.0270    7.1747 C   0  0  0  0  0  0  0  0  0  0  0  0
  -13.5122    0.2787    7.9723 C   0  0  0  0  0  0  0  0  0  0  0  0
  -13.3981    0.2003    9.3078 C   0  0  0  0  0  0  0  0  0  0  0  0
  -12.3713    0.9343    9.9501 C   0  0  0  0  0  0  0  0  0  0  0  0
  -12.1322    1.1841   11.2157 N   0  0  0  0  0  0  0  0  0  0  0  0
  -11.0879    2.0744   11.2713 N   0  0  0  0  0  0  0  0  0  0  0  0
  -10.6734    2.2975   10.0477 C   0  0  0  0  0  0  0  0  0  0  0  0
  -11.4535    1.6154    9.1568 N   0  0  0  0  0  0  0  0  0  0  0  0
   -8.6032    0.6557    7.7945 N   0  0  0  0  0  0  0  0  0  0  0  0
   -7.2692    0.3609    7.6513 C   0  0  0  0  0  0  0  0  0  0  0  0
   -6.5328   -0.7767    7.9442 C   0  0  0  0  0  0  0  0  0  0  0  0
   -8.3468   -1.5931    4.9702 C   0  0  0  0  0  0  0  0  0  0  0  0
   -9.6333   -1.5471    5.4850 C   0  0  0  0  0  0  0  0  0  0  0  0
   -9.9417   -2.3455    6.5869 C   0  0  0  0  0  0  0  0  0  0  0  0
  -11.1876   -2.2753    7.1379 O   0  0  0  0  0  0  0  0  0  0  0  0
  -12.2215   -2.2131    6.1499 C   0  0  0  0  0  0  0  0  0  0  0  0
  -11.9385   -1.1801    5.0904 C   0  0  0  0  0  0  0  0  0  0  0  0
  -10.6871   -0.7815    4.8235 C   0  0  0  0  0  0  0  0  0  0  0  0
   -7.0419   -4.0166    7.0020 H   0  0  0  0  0  0  0  0  0  0  0  0
   -5.1736   -3.7856    6.0839 H   0  0  0  0  0  0  0  0  0  0  0  0
   -4.1384   -2.6164    5.3093 H   0  0  0  0  0  0  0  0  0  0  0  0
   -3.6855    0.1322    6.3340 H   0  0  0  0  0  0  0  0  0  0  0  0
   -4.9411    2.3004    6.1404 H   0  0  0  0  0  0  0  0  0  0  0  0
  -12.7379    1.1001    6.1090 H   0  0  0  0  0  0  0  0  0  0  0  0
  -14.3233   -0.2329    7.4611 H   0  0  0  0  0  0  0  0  0  0  0  0
  -14.1023   -0.3647    9.9083 H   0  0  0  0  0  0  0  0  0  0  0  0
   -9.8643    2.9563    9.7682 H   0  0  0  0  0  0  0  0  0  0  0  0
   -9.3046    0.0268    8.1605 H   0  0  0  0  0  0  0  0  0  0  0  0
   -6.9797   -1.6336    8.4199 H   0  0  0  0  0  0  0  0  0  0  0  0
   -8.0539   -0.9426    4.1485 H   0  0  0  0  0  0  0  0  0  0  0  0
  -12.3222   -3.2054    5.7213 H   0  0  0  0  0  0  0  0  0  0  0  0
  -13.1608   -2.0004    6.6610 H   0  0  0  0  0  0  0  0  0  0  0  0
  -12.7883   -0.7750    4.5502 H   0  0  0  0  0  0  0  0  0  0  0  0
  -10.4491   -0.0414    4.0685 H   0  0  0  0  0  0  0  0  0  0  0  0
  1  2  1  0
  2  3  2  0
  3  4  1  0
  4  5  1  0
  5  6  1  0
  6  7  1  0
  7  8  1  0
  8  9  2  0
  9 10  1  0
 10 11  2  0
 11 12  1  0
 12 13  2  0
 13 14  1  0
 14 15  1  0
 15 16  2  0
 16 17  1  0
 17 18  2  0
 18 19  1  0
 19 20  2  0
 20 21  1  0
 21 22  2  0
 22 23  1  0
 13 24  1  0
 24 25  1  0
 25 26  2  0
  4 27  2  0
 27 28  1  0
 28 29  2  0
 29 30  1  0
 30 31  1  0
 31 32  1  0
 32 33  2  0
 29  2  1  0
 26  8  1  0
 33 28  1  0
 25 11  1  0
 23 15  1  0
 23 19  1  0
  3 34  1  0
  6 35  1  0
  6 36  1  0
  9 37  1  0
 10 38  1  0
 16 39  1  0
 17 40  1  0
 18 41  1  0
 22 42  1  0
 24 43  1  0
 26 44  1  0
 27 45  1  0
 31 46  1  0
 31 47  1  0
 32 48  1  0
 33 49  1  0
M  END
>  <Energy>  (617) 
96.019175714797697

>  <compound_id>  (617) 
1246

>  <target_id>  (617) 
1

>  <reference_id>  (617) 
181

>  <inspiration_ids>  (617) 
[181, 73]

>  <energy_score>  (617) 
-11.004260805705428

>  <distance_score>  (617) 
1.3614216339272518

>  <path>  (617) 
/opt/xchem-fragalysis-2/maxwin/BulkDock/SCRATCH/505736/C1246-P181/C1246-P181.minimised.mol

>  <scratch_subdir>  (617) 
/opt/xchem-fragalysis-2/maxwin/BulkDock/SCRATCH/505736/C1246-P181

>  <fragmenstein_runtime>  (617) 
5.505619049072266

>  <fragmenstein_outcome>  (617) 
too moved

>  <fragmenstein_mode>  (617) 
expansion

>  <fragmenstein_error>  (617) 


$$$$
C1246-P73
     RDKit          3D

 49 54  0  0  0  0  0  0  0  0999 V2000
   -8.9266   -4.2410    8.0333 F   0  0  0  0  0  0  0  0  0  0  0  0
   -8.6593   -3.5176    6.9440 C   0  0  0  0  0  0  0  0  0  0  0  0
   -7.3434   -3.4541    6.5352 C   0  0  0  0  0  0  0  0  0  0  0  0
   -7.0119   -2.5711    5.5302 C   0  0  0  0  0  0  0  0  0  0  0  0
   -5.7532   -2.1743    5.2276 O   0  0  0  0  0  0  0  0  0  0  0  0
   -4.6717   -2.4241    6.1274 C   0  0  0  0  0  0  0  0  0  0  0  0
   -4.7425   -2.0224    7.5021 O   0  0  0  0  0  0  0  0  0  0  0  0
   -5.3112   -0.7918    7.6366 C   0  0  0  0  0  0  0  0  0  0  0  0
   -4.6675    0.3660    7.2156 C   0  0  0  0  0  0  0  0  0  0  0  0
   -5.4099    1.5359    7.0187 C   0  0  0  0  0  0  0  0  0  0  0  0
   -6.8035    1.4603    7.1739 C   0  0  0  0  0  0  0  0  0  0  0  0
   -7.7889    2.3470    6.8239 N   0  0  0  0  0  0  0  0  0  0  0  0
   -8.9187    1.7162    7.0609 C   0  0  0  0  0  0  0  0  0  0  0  0
  -10.4768    2.2823    6.5667 S   0  0  0  0  0  0  0  0  0  0  0  0
  -11.5361    1.3686    7.5888 C   0  0  0  0  0  0  0  0  0  0  0  0
  -12.4181    0.5037    7.0497 C   0  0  0  0  0  0  0  0  0  0  0  0
  -13.3154   -0.2578    7.9038 C   0  0  0  0  0  0  0  0  0  0  0  0
  -13.3338   -0.0732    9.2344 C   0  0  0  0  0  0  0  0  0  0  0  0
  -12.4857    0.9073    9.8081 C   0  0  0  0  0  0  0  0  0  0  0  0
  -12.3890    1.3815   11.0289 N   0  0  0  0  0  0  0  0  0  0  0  0
  -11.4346    2.3722   11.0177 N   0  0  0  0  0  0  0  0  0  0  0  0
  -10.9530    2.4589    9.7990 C   0  0  0  0  0  0  0  0  0  0  0  0
  -11.6012    1.5811    8.9722 N   0  0  0  0  0  0  0  0  0  0  0  0
   -8.7139    0.5081    7.6597 N   0  0  0  0  0  0  0  0  0  0  0  0
   -7.3619    0.3124    7.7144 C   0  0  0  0  0  0  0  0  0  0  0  0
   -6.6239   -0.7901    8.0924 C   0  0  0  0  0  0  0  0  0  0  0  0
   -8.0018   -1.9076    4.8014 C   0  0  0  0  0  0  0  0  0  0  0  0
   -9.3305   -2.0278    5.1627 C   0  0  0  0  0  0  0  0  0  0  0  0
   -9.6485   -2.7961    6.2834 C   0  0  0  0  0  0  0  0  0  0  0  0
  -10.9180   -2.7746    6.7881 O   0  0  0  0  0  0  0  0  0  0  0  0
  -11.8925   -2.7108    5.7490 C   0  0  0  0  0  0  0  0  0  0  0  0
  -11.6169   -1.6792    4.6998 C   0  0  0  0  0  0  0  0  0  0  0  0
  -10.3630   -1.3138    4.4270 C   0  0  0  0  0  0  0  0  0  0  0  0
   -6.6013   -3.9980    7.0965 H   0  0  0  0  0  0  0  0  0  0  0  0
   -4.4380   -3.4792    6.1230 H   0  0  0  0  0  0  0  0  0  0  0  0
   -3.7972   -1.9291    5.6897 H   0  0  0  0  0  0  0  0  0  0  0  0
   -3.6101    0.3450    6.9848 H   0  0  0  0  0  0  0  0  0  0  0  0
   -4.9481    2.4445    6.6508 H   0  0  0  0  0  0  0  0  0  0  0  0
  -12.5090    0.3699    5.9795 H   0  0  0  0  0  0  0  0  0  0  0  0
  -13.9838   -0.9799    7.4428 H   0  0  0  0  0  0  0  0  0  0  0  0
  -14.0046   -0.6329    9.8759 H   0  0  0  0  0  0  0  0  0  0  0  0
  -10.1808    3.1420    9.4739 H   0  0  0  0  0  0  0  0  0  0  0  0
   -9.4147   -0.1848    7.8844 H   0  0  0  0  0  0  0  0  0  0  0  0
   -7.0963   -1.6741    8.4935 H   0  0  0  0  0  0  0  0  0  0  0  0
   -7.7059   -1.2412    3.9938 H   0  0  0  0  0  0  0  0  0  0  0  0
  -11.8849   -3.6887    5.2834 H   0  0  0  0  0  0  0  0  0  0  0  0
  -12.8669   -2.5413    6.2089 H   0  0  0  0  0  0  0  0  0  0  0  0
  -12.4584   -1.2710    4.1487 H   0  0  0  0  0  0  0  0  0  0  0  0
  -10.1103   -0.5847    3.6668 H   0  0  0  0  0  0  0  0  0  0  0  0
  1  2  1  0
  2  3  2  0
  3  4  1  0
  4  5  1  0
  5  6  1  0
  6  7  1  0
  7  8  1  0
  8  9  2  0
  9 10  1  0
 10 11  2  0
 11 12  1  0
 12 13  2  0
 13 14  1  0
 14 15  1  0
 15 16  2  0
 16 17  1  0
 17 18  2  0
 18 19  1  0
 19 20  2  0
 20 21  1  0
 21 22  2  0
 22 23  1  0
 13 24  1  0
 24 25  1  0
 25 26  2  0
  4 27  2  0
 27 28  1  0
 28 29  2  0
 29 30  1  0
 30 31  1  0
 31 32  1  0
 32 33  2  0
 29  2  1  0
 26  8  1  0
 33 28  1  0
 25 11  1  0
 23 15  1  0
 23 19  1  0
  3 34  1  0
  6 35  1  0
  6 36  1  0
  9 37  1  0
 10 38  1  0
 16 39  1  0
 17 40  1  0
 18 41  1  0
 22 42  1  0
 24 43  1  0
 26 44  1  0
 27 45  1  0
 31 46  1  0
 31 47  1  0
 32 48  1  0
 33 49  1  0
M  END
>  <Energy>  (618) 
89.46386410330048

>  <compound_id>  (618) 
1246

>  <target_id>  (618) 
1

>  <reference_id>  (618) 
73

>  <inspiration_ids>  (618) 
[181, 73]

>  <energy_score>  (618) 
-17.559572417201707

>  <distance_score>  (618) 
1.3879568040496346

>  <path>  (618) 
/opt/xchem-fragalysis-2/maxwin/BulkDock/SCRATCH/505736/C1246-P73/C1246-P73.minimised.mol

>  <scratch_subdir>  (618) 
/opt/xchem-fragalysis-2/maxwin/BulkDock/SCRATCH/505736/C1246-P73

>  <fragmenstein_runtime>  (618) 
5.006898641586304

>  <fragmenstein_outcome>  (618) 
too moved

>  <fragmenstein_mode>  (618) 
expansion

>  <fragmenstein_error>  (618) 


$$$$
C2736-P181
     RDKit          3D

 54 58  0  0  0  0  0  0  0  0999 V2000
  -11.0621   -2.6570    6.5178 C   0  0  0  0  0  0  0  0  0  0  0  0
  -10.2018   -3.7126    6.1205 O   0  0  0  0  0  0  0  0  0  0  0  0
   -8.8120   -3.5908    5.8110 C   0  0  0  0  0  0  0  0  0  0  0  0
   -8.1049   -2.2739    6.1426 C   0  0  0  0  0  0  0  0  0  0  0  0
   -8.1810   -2.1727    7.6615 C   0  0  0  0  0  0  0  0  0  0  0  0
   -8.7005   -1.0957    5.3629 C   0  0  0  0  0  0  0  0  0  0  0  0
   -8.1260   -1.2209    3.9614 C   0  0  0  0  0  0  0  0  0  0  0  0
   -6.7203   -1.7186    4.1760 C   0  0  0  0  0  0  0  0  0  0  0  0
   -6.7246   -2.1894    5.5618 N   0  0  0  0  0  0  0  0  0  0  0  0
   -5.3531   -2.8717    6.1878 S   0  0  0  0  0  0  0  0  0  0  0  0
   -4.4005   -2.9766    5.0995 O   0  0  0  0  0  0  0  0  0  0  0  0
   -5.8698   -4.0359    6.8553 O   0  0  0  0  0  0  0  0  0  0  0  0
   -4.6989   -1.8583    7.3122 O   0  0  0  0  0  0  0  0  0  0  0  0
   -5.0857   -0.5434    7.2613 C   0  0  0  0  0  0  0  0  0  0  0  0
   -4.6786    0.2584    6.2059 C   0  0  0  0  0  0  0  0  0  0  0  0
   -5.3853    1.4214    5.8849 C   0  0  0  0  0  0  0  0  0  0  0  0
   -6.5454    1.6570    6.6079 C   0  0  0  0  0  0  0  0  0  0  0  0
   -7.5925    2.5164    6.4137 N   0  0  0  0  0  0  0  0  0  0  0  0
   -8.6219    2.0773    7.1959 C   0  0  0  0  0  0  0  0  0  0  0  0
  -10.2080    2.6311    6.8208 S   0  0  0  0  0  0  0  0  0  0  0  0
  -11.1977    1.4299    7.5880 C   0  0  0  0  0  0  0  0  0  0  0  0
  -11.9928    0.6306    6.8427 C   0  0  0  0  0  0  0  0  0  0  0  0
  -12.9611   -0.2430    7.4936 C   0  0  0  0  0  0  0  0  0  0  0  0
  -13.1007   -0.2558    8.8305 C   0  0  0  0  0  0  0  0  0  0  0  0
  -12.2972    0.5985    9.6255 C   0  0  0  0  0  0  0  0  0  0  0  0
  -12.2957    0.8569   10.9140 N   0  0  0  0  0  0  0  0  0  0  0  0
  -11.3600    1.8375   11.1392 N   0  0  0  0  0  0  0  0  0  0  0  0
  -10.7878    2.1225    9.9921 C   0  0  0  0  0  0  0  0  0  0  0  0
  -11.3598    1.3980    8.9815 N   0  0  0  0  0  0  0  0  0  0  0  0
   -8.2182    1.1989    8.0791 N   0  0  0  0  0  0  0  0  0  0  0  0
   -6.9290    0.8931    7.6971 C   0  0  0  0  0  0  0  0  0  0  0  0
   -6.0853   -0.1329    8.1342 C   0  0  0  0  0  0  0  0  0  0  0  0
  -10.6400   -2.0298    7.2983 H   0  0  0  0  0  0  0  0  0  0  0  0
  -11.3820   -2.0570    5.6653 H   0  0  0  0  0  0  0  0  0  0  0  0
  -11.9860   -3.0870    6.9075 H   0  0  0  0  0  0  0  0  0  0  0  0
   -8.6793   -3.8286    4.7522 H   0  0  0  0  0  0  0  0  0  0  0  0
   -8.3227   -4.4233    6.3300 H   0  0  0  0  0  0  0  0  0  0  0  0
   -7.2280   -2.3610    8.1335 H   0  0  0  0  0  0  0  0  0  0  0  0
   -8.8304   -2.9351    8.1069 H   0  0  0  0  0  0  0  0  0  0  0  0
   -8.5982   -1.2245    7.9962 H   0  0  0  0  0  0  0  0  0  0  0  0
   -8.3549   -0.1547    5.7719 H   0  0  0  0  0  0  0  0  0  0  0  0
   -9.7779   -1.0099    5.3173 H   0  0  0  0  0  0  0  0  0  0  0  0
   -8.1473   -0.2684    3.4222 H   0  0  0  0  0  0  0  0  0  0  0  0
   -8.6991   -1.9385    3.3674 H   0  0  0  0  0  0  0  0  0  0  0  0
   -6.4916   -2.5292    3.4771 H   0  0  0  0  0  0  0  0  0  0  0  0
   -5.9999   -0.9103    4.0336 H   0  0  0  0  0  0  0  0  0  0  0  0
   -3.8971   -0.0967    5.5395 H   0  0  0  0  0  0  0  0  0  0  0  0
   -5.1703    1.9923    4.9944 H   0  0  0  0  0  0  0  0  0  0  0  0
   -7.6894    3.1834    5.6642 H   0  0  0  0  0  0  0  0  0  0  0  0
  -11.9878    0.6442    5.7571 H   0  0  0  0  0  0  0  0  0  0  0  0
  -13.5870   -0.8776    6.8692 H   0  0  0  0  0  0  0  0  0  0  0  0
  -13.8340   -0.8829    9.3198 H   0  0  0  0  0  0  0  0  0  0  0  0
   -9.9908    2.8353    9.8462 H   0  0  0  0  0  0  0  0  0  0  0  0
   -6.3647   -0.7220    8.9922 H   0  0  0  0  0  0  0  0  0  0  0  0
  1  2  1  0
  2  3  1  0
  3  4  1  0
  4  5  1  0
  4  6  1  0
  6  7  1  0
  7  8  1  0
  8  9  1  0
  9 10  1  0
 10 11  2  0
 10 12  2  0
 10 13  1  0
 13 14  1  0
 14 15  2  0
 15 16  1  0
 16 17  2  0
 17 18  1  0
 18 19  1  0
 19 20  1  0
 20 21  1  0
 21 22  2  0
 22 23  1  0
 23 24  2  0
 24 25  1  0
 25 26  2  0
 26 27  1  0
 27 28  2  0
 28 29  1  0
 19 30  2  0
 30 31  1  0
 31 32  2  0
  9  4  1  0
 32 14  1  0
 31 17  1  0
 29 21  1  0
 29 25  1  0
  1 33  1  0
  1 34  1  0
  1 35  1  0
  3 36  1  0
  3 37  1  0
  5 38  1  0
  5 39  1  0
  5 40  1  0
  6 41  1  0
  6 42  1  0
  7 43  1  0
  7 44  1  0
  8 45  1  0
  8 46  1  0
 15 47  1  0
 16 48  1  0
 18 49  1  0
 22 50  1  0
 23 51  1  0
 24 52  1  0
 28 53  1  0
 32 54  1  0
M  END
>  <Energy>  (619) 
44.02277324643206

>  <compound_id>  (619) 
2736

>  <target_id>  (619) 
1

>  <reference_id>  (619) 
181

>  <inspiration_ids>  (619) 
[181, 74]

>  <energy_score>  (619) 
-19.182910813003332

>  <distance_score>  (619) 
1.5743819734969555

>  <path>  (619) 
/opt/xchem-fragalysis-2/maxwin/BulkDock/SCRATCH/505736/C2736-P181/C2736-P181.minimised.mol

>  <scratch_subdir>  (619) 
/opt/xchem-fragalysis-2/maxwin/BulkDock/SCRATCH/505736/C2736-P181

>  <fragmenstein_runtime>  (619) 
3.7347121238708496

>  <fragmenstein_outcome>  (619) 
too moved

>  <fragmenstein_mode>  (619) 
expansion

>  <fragmenstein_error>  (619) 


$$$$
C2736-P74
     RDKit          3D

 54 58  0  0  0  0  0  0  0  0999 V2000
  -10.7830   -2.5995    6.3383 C   0  0  0  0  0  0  0  0  0  0  0  0
   -9.4223   -2.2075    6.4081 O   0  0  0  0  0  0  0  0  0  0  0  0
   -8.7196   -2.4409    5.1947 C   0  0  0  0  0  0  0  0  0  0  0  0
   -7.4371   -3.3062    5.3574 C   0  0  0  0  0  0  0  0  0  0  0  0
   -7.6698   -4.2660    6.5207 C   0  0  0  0  0  0  0  0  0  0  0  0
   -7.1691   -3.9615    3.9747 C   0  0  0  0  0  0  0  0  0  0  0  0
   -6.2317   -3.0361    3.2341 C   0  0  0  0  0  0  0  0  0  0  0  0
   -5.2687   -2.7099    4.3256 C   0  0  0  0  0  0  0  0  0  0  0  0
   -6.1599   -2.5446    5.4896 N   0  0  0  0  0  0  0  0  0  0  0  0
   -5.3587   -2.2551    6.9165 S   0  0  0  0  0  0  0  0  0  0  0  0
   -4.3167   -3.2501    7.0318 O   0  0  0  0  0  0  0  0  0  0  0  0
   -6.3275   -2.0007    7.9546 O   0  0  0  0  0  0  0  0  0  0  0  0
   -4.6495   -0.8360    6.5743 O   0  0  0  0  0  0  0  0  0  0  0  0
   -5.5567    0.1908    6.5419 C   0  0  0  0  0  0  0  0  0  0  0  0
   -5.5635    1.0257    7.6411 C   0  0  0  0  0  0  0  0  0  0  0  0
   -6.4627    2.0773    7.7280 C   0  0  0  0  0  0  0  0  0  0  0  0
   -7.5414    1.9750    6.8875 C   0  0  0  0  0  0  0  0  0  0  0  0
   -8.7154    2.6535    6.8638 N   0  0  0  0  0  0  0  0  0  0  0  0
   -9.5472    1.9551    6.0511 C   0  0  0  0  0  0  0  0  0  0  0  0
  -11.2036    2.3819    6.0114 S   0  0  0  0  0  0  0  0  0  0  0  0
  -11.8495    1.2021    7.1134 C   0  0  0  0  0  0  0  0  0  0  0  0
  -12.6667    0.2404    6.6329 C   0  0  0  0  0  0  0  0  0  0  0  0
  -13.3646   -0.6473    7.5490 C   0  0  0  0  0  0  0  0  0  0  0  0
  -13.2104   -0.5362    8.8793 C   0  0  0  0  0  0  0  0  0  0  0  0
  -12.3482    0.4545    9.4081 C   0  0  0  0  0  0  0  0  0  0  0  0
  -12.0538    0.7950   10.6435 N   0  0  0  0  0  0  0  0  0  0  0  0
  -11.2351    1.8950   10.5898 N   0  0  0  0  0  0  0  0  0  0  0  0
  -11.0572    2.1964    9.3242 C   0  0  0  0  0  0  0  0  0  0  0  0
  -11.7056    1.3023    8.5119 N   0  0  0  0  0  0  0  0  0  0  0  0
   -8.9021    1.0851    5.3142 N   0  0  0  0  0  0  0  0  0  0  0  0
   -7.6428    1.0630    5.8575 C   0  0  0  0  0  0  0  0  0  0  0  0
   -6.5308    0.2877    5.5523 C   0  0  0  0  0  0  0  0  0  0  0  0
  -10.8552   -3.6707    6.1387 H   0  0  0  0  0  0  0  0  0  0  0  0
  -11.2489   -2.3915    7.2984 H   0  0  0  0  0  0  0  0  0  0  0  0
  -11.2996   -2.0425    5.5522 H   0  0  0  0  0  0  0  0  0  0  0  0
   -8.4910   -1.4779    4.7383 H   0  0  0  0  0  0  0  0  0  0  0  0
   -9.4001   -2.9374    4.4900 H   0  0  0  0  0  0  0  0  0  0  0  0
   -8.6318   -4.7781    6.4347 H   0  0  0  0  0  0  0  0  0  0  0  0
   -7.7019   -3.7895    7.4997 H   0  0  0  0  0  0  0  0  0  0  0  0
   -6.8952   -5.0199    6.5315 H   0  0  0  0  0  0  0  0  0  0  0  0
   -6.6482   -4.9169    4.0837 H   0  0  0  0  0  0  0  0  0  0  0  0
   -8.0626   -4.0848    3.3590 H   0  0  0  0  0  0  0  0  0  0  0  0
   -5.7527   -3.5148    2.3754 H   0  0  0  0  0  0  0  0  0  0  0  0
   -6.7609   -2.1430    2.8825 H   0  0  0  0  0  0  0  0  0  0  0  0
   -4.5683   -3.5368    4.4791 H   0  0  0  0  0  0  0  0  0  0  0  0
   -4.7055   -1.8018    4.0958 H   0  0  0  0  0  0  0  0  0  0  0  0
   -4.8124    0.8373    8.4033 H   0  0  0  0  0  0  0  0  0  0  0  0
   -6.4620    2.8387    8.4894 H   0  0  0  0  0  0  0  0  0  0  0  0
   -8.9776    3.4164    7.4672 H   0  0  0  0  0  0  0  0  0  0  0  0
  -12.8740    0.1278    5.5721 H   0  0  0  0  0  0  0  0  0  0  0  0
  -14.0381   -1.3908    7.1317 H   0  0  0  0  0  0  0  0  0  0  0  0
  -13.7518   -1.1681    9.5681 H   0  0  0  0  0  0  0  0  0  0  0  0
  -10.5038    3.0470    8.9690 H   0  0  0  0  0  0  0  0  0  0  0  0
   -6.5508   -0.3300    4.6717 H   0  0  0  0  0  0  0  0  0  0  0  0
  1  2  1  0
  2  3  1  0
  3  4  1  0
  4  5  1  0
  4  6  1  0
  6  7  1  0
  7  8  1  0
  8  9  1  0
  9 10  1  0
 10 11  2  0
 10 12  2  0
 10 13  1  0
 13 14  1  0
 14 15  2  0
 15 16  1  0
 16 17  2  0
 17 18  1  0
 18 19  1  0
 19 20  1  0
 20 21  1  0
 21 22  2  0
 22 23  1  0
 23 24  2  0
 24 25  1  0
 25 26  2  0
 26 27  1  0
 27 28  2  0
 28 29  1  0
 19 30  2  0
 30 31  1  0
 31 32  2  0
  9  4  1  0
 32 14  1  0
 31 17  1  0
 29 21  1  0
 29 25  1  0
  1 33  1  0
  1 34  1  0
  1 35  1  0
  3 36  1  0
  3 37  1  0
  5 38  1  0
  5 39  1  0
  5 40  1  0
  6 41  1  0
  6 42  1  0
  7 43  1  0
  7 44  1  0
  8 45  1  0
  8 46  1  0
 15 47  1  0
 16 48  1  0
 18 49  1  0
 22 50  1  0
 23 51  1  0
 24 52  1  0
 28 53  1  0
 32 54  1  0
M  END
>  <Energy>  (620) 
32.724958432219466

>  <compound_id>  (620) 
2736

>  <target_id>  (620) 
1

>  <reference_id>  (620) 
74

>  <inspiration_ids>  (620) 
[181, 74]

>  <energy_score>  (620) 
-30.480725627217055

>  <distance_score>  (620) 
1.8994339420916784

>  <path>  (620) 
/opt/xchem-fragalysis-2/maxwin/BulkDock/SCRATCH/505736/C2736-P74/C2736-P74.minimised.mol

>  <scratch_subdir>  (620) 
/opt/xchem-fragalysis-2/maxwin/BulkDock/SCRATCH/505736/C2736-P74

>  <fragmenstein_runtime>  (620) 
3.365550994873047

>  <fragmenstein_outcome>  (620) 
too moved

>  <fragmenstein_mode>  (620) 
expansion

>  <fragmenstein_error>  (620) 


$$$$
C2737-P181
     RDKit          3D

 53 58  0  0  0  0  0  0  0  0999 V2000
   -5.1554   -3.9574    7.7309 O   0  0  0  0  0  0  0  0  0  0  0  0
   -4.1476   -4.2266    7.1713 C   0  0  0  0  0  0  0  0  0  0  0  0
   -3.5060   -6.0624    7.7318 C   0  0  0  0  0  0  0  0  0  0  0  0
   -4.4525   -8.1503    8.1379 C   0  0  0  0  0  0  0  0  0  0  0  0
   -3.1689   -9.3046    7.2408 N   0  0  0  0  0  0  0  0  0  0  0  0
   -1.5811   -7.9934    7.9928 N   0  0  0  0  0  0  0  0  0  0  0  0
   -2.6972   -6.2810    8.5438 C   0  0  0  0  0  0  0  0  0  0  0  0
   -3.4796   -3.3308    6.3082 N   0  0  0  0  0  0  0  0  0  0  0  0
   -3.9940   -3.5192    4.7834 C   0  0  0  0  0  0  0  0  0  0  0  0
   -4.2335   -2.3012    3.8935 C   0  0  0  0  0  0  0  0  0  0  0  0
   -3.3901   -1.3391    4.6216 C   0  0  0  0  0  0  0  0  0  0  0  0
   -3.7297   -1.9071    5.9675 C   0  0  0  0  0  0  0  0  0  0  0  0
   -3.3593   -1.0733    7.2208 C   0  0  0  0  0  0  0  0  0  0  0  0
   -3.9107    0.2474    7.1689 O   0  0  0  0  0  0  0  0  0  0  0  0
   -5.2817    0.3166    7.2724 C   0  0  0  0  0  0  0  0  0  0  0  0
   -6.0765   -0.6980    7.8200 C   0  0  0  0  0  0  0  0  0  0  0  0
   -7.4655   -0.6553    7.7619 C   0  0  0  0  0  0  0  0  0  0  0  0
   -8.0565    0.4786    7.2223 C   0  0  0  0  0  0  0  0  0  0  0  0
   -9.3801    0.7453    7.0767 N   0  0  0  0  0  0  0  0  0  0  0  0
   -9.4253    1.9605    6.6014 C   0  0  0  0  0  0  0  0  0  0  0  0
  -10.8626    2.8771    6.3326 S   0  0  0  0  0  0  0  0  0  0  0  0
  -11.9512    1.7624    7.1207 C   0  0  0  0  0  0  0  0  0  0  0  0
  -12.7488    0.9493    6.3951 C   0  0  0  0  0  0  0  0  0  0  0  0
  -13.6202    0.0009    7.0743 C   0  0  0  0  0  0  0  0  0  0  0  0
  -13.6738   -0.0629    8.4173 C   0  0  0  0  0  0  0  0  0  0  0  0
  -12.8552    0.7939    9.1967 C   0  0  0  0  0  0  0  0  0  0  0  0
  -12.7313    0.9619   10.4959 N   0  0  0  0  0  0  0  0  0  0  0  0
  -11.7743    1.9278   10.7039 N   0  0  0  0  0  0  0  0  0  0  0  0
  -11.3378    2.3180    9.5272 C   0  0  0  0  0  0  0  0  0  0  0  0
  -12.0052    1.6629    8.5238 N   0  0  0  0  0  0  0  0  0  0  0  0
   -8.1824    2.4759    6.3703 N   0  0  0  0  0  0  0  0  0  0  0  0
   -7.2667    1.5274    6.7595 C   0  0  0  0  0  0  0  0  0  0  0  0
   -5.8687    1.4813    6.7597 C   0  0  0  0  0  0  0  0  0  0  0  0
   -5.5069   -8.5589    8.1357 H   0  0  0  0  0  0  0  0  0  0  0  0
   -0.9730   -8.3880    8.7116 H   0  0  0  0  0  0  0  0  0  0  0  0
   -2.8707   -5.7530    9.5867 H   0  0  0  0  0  0  0  0  0  0  0  0
   -3.3452   -4.2521    4.3016 H   0  0  0  0  0  0  0  0  0  0  0  0
   -4.9900   -3.9875    4.8432 H   0  0  0  0  0  0  0  0  0  0  0  0
   -4.0202   -2.4324    2.8329 H   0  0  0  0  0  0  0  0  0  0  0  0
   -5.2925   -2.0059    3.9322 H   0  0  0  0  0  0  0  0  0  0  0  0
   -2.3369   -1.4007    4.3606 H   0  0  0  0  0  0  0  0  0  0  0  0
   -3.7491   -0.3210    4.4755 H   0  0  0  0  0  0  0  0  0  0  0  0
   -4.8307   -1.8482    6.0304 H   0  0  0  0  0  0  0  0  0  0  0  0
   -2.2791   -1.0132    7.3360 H   0  0  0  0  0  0  0  0  0  0  0  0
   -3.6456   -1.5635    8.1585 H   0  0  0  0  0  0  0  0  0  0  0  0
   -5.6533   -1.5803    8.2798 H   0  0  0  0  0  0  0  0  0  0  0  0
   -8.0774   -1.4690    8.1359 H   0  0  0  0  0  0  0  0  0  0  0  0
  -12.7527    0.9458    5.3099 H   0  0  0  0  0  0  0  0  0  0  0  0
  -14.2236   -0.6692    6.4655 H   0  0  0  0  0  0  0  0  0  0  0  0
  -14.3231   -0.7624    8.9260 H   0  0  0  0  0  0  0  0  0  0  0  0
  -10.5662    3.0521    9.3553 H   0  0  0  0  0  0  0  0  0  0  0  0
   -7.9851    3.3992    6.0163 H   0  0  0  0  0  0  0  0  0  0  0  0
   -5.2637    2.2962    6.3813 H   0  0  0  0  0  0  0  0  0  0  0  0
  1  2  2  0
  2  3  1  0
  3  4  1  0
  4  5  2  0
  5  6  1  0
  6  7  1  0
  2  8  1  0
  8  9  1  0
  9 10  1  0
 10 11  1  0
 11 12  1  0
 12 13  1  0
 13 14  1  0
 14 15  1  0
 15 16  2  0
 16 17  1  0
 17 18  2  0
 18 19  1  0
 19 20  2  0
 20 21  1  0
 21 22  1  0
 22 23  2  0
 23 24  1  0
 24 25  2  0
 25 26  1  0
 26 27  2  0
 27 28  1  0
 28 29  2  0
 29 30  1  0
 20 31  1  0
 31 32  1  0
 32 33  2  0
  7  3  2  0
 12  8  1  0
 33 15  1  0
 32 18  1  0
 30 22  1  0
 30 26  1  0
  4 34  1  0
  6 35  1  0
  7 36  1  0
  9 37  1  0
  9 38  1  0
 10 39  1  0
 10 40  1  0
 11 41  1  0
 11 42  1  0
 12 43  1  0
 13 44  1  0
 13 45  1  0
 16 46  1  0
 17 47  1  0
 23 48  1  0
 24 49  1  0
 25 50  1  0
 29 51  1  0
 31 52  1  0
 33 53  1  0
M  END
>  <Energy>  (621) 
1228.5765854593624

>  <compound_id>  (621) 
2737

>  <target_id>  (621) 
1

>  <reference_id>  (621) 
181

>  <inspiration_ids>  (621) 
[181, 84]

>  <energy_score>  (621) 
1109.847250955068

>  <distance_score>  (621) 
1.9894456186848508

>  <path>  (621) 
/opt/xchem-fragalysis-2/maxwin/BulkDock/SCRATCH/505736/C2737-P181/C2737-P181.minimised.mol

>  <scratch_subdir>  (621) 
/opt/xchem-fragalysis-2/maxwin/BulkDock/SCRATCH/505736/C2737-P181

>  <fragmenstein_runtime>  (621) 
13.533876180648804

>  <fragmenstein_outcome>  (621) 
too moved

>  <fragmenstein_mode>  (621) 
expansion

>  <fragmenstein_error>  (621) 


$$$$
C2737-P84
     RDKit          3D

 53 58  0  0  0  0  0  0  0  0999 V2000
   -6.8842   -5.4088   10.0519 O   0  0  0  0  0  0  0  0  0  0  0  0
   -6.0135   -5.5536    9.3279 C   0  0  0  0  0  0  0  0  0  0  0  0
   -4.4686   -6.8475   10.0046 C   0  0  0  0  0  0  0  0  0  0  0  0
   -4.9553   -8.4356    8.6471 C   0  0  0  0  0  0  0  0  0  0  0  0
   -3.7231   -9.1618    7.2709 N   0  0  0  0  0  0  0  0  0  0  0  0
   -1.9125   -8.0275    7.9050 N   0  0  0  0  0  0  0  0  0  0  0  0
   -3.2314   -6.5032    8.6615 C   0  0  0  0  0  0  0  0  0  0  0  0
   -6.2292   -4.3891    7.8358 N   0  0  0  0  0  0  0  0  0  0  0  0
   -7.0440   -5.0695    6.6718 C   0  0  0  0  0  0  0  0  0  0  0  0
   -8.5578   -4.8013    6.6818 C   0  0  0  0  0  0  0  0  0  0  0  0
   -8.6828   -3.7155    7.6521 C   0  0  0  0  0  0  0  0  0  0  0  0
   -7.2796   -3.2458    7.5181 C   0  0  0  0  0  0  0  0  0  0  0  0
   -6.9979   -2.4094    6.1861 C   0  0  0  0  0  0  0  0  0  0  0  0
   -5.7385   -1.6807    6.1991 O   0  0  0  0  0  0  0  0  0  0  0  0
   -6.0755   -0.3917    6.5724 C   0  0  0  0  0  0  0  0  0  0  0  0
   -6.2437   -0.2118    7.9374 C   0  0  0  0  0  0  0  0  0  0  0  0
   -7.2993    0.5784    8.3573 C   0  0  0  0  0  0  0  0  0  0  0  0
   -8.0154    1.3195    7.4172 C   0  0  0  0  0  0  0  0  0  0  0  0
   -9.1526    2.0446    7.6007 N   0  0  0  0  0  0  0  0  0  0  0  0
   -9.5550    2.3279    6.3914 C   0  0  0  0  0  0  0  0  0  0  0  0
  -11.1591    2.7976    5.9646 S   0  0  0  0  0  0  0  0  0  0  0  0
  -11.9437    1.5845    6.9471 C   0  0  0  0  0  0  0  0  0  0  0  0
  -12.3815    0.4332    6.3923 C   0  0  0  0  0  0  0  0  0  0  0  0
  -12.9949   -0.5855    7.2321 C   0  0  0  0  0  0  0  0  0  0  0  0
  -13.1625   -0.3956    8.5534 C   0  0  0  0  0  0  0  0  0  0  0  0
  -12.7313    0.8169    9.1501 C   0  0  0  0  0  0  0  0  0  0  0  0
  -12.8048    1.2709   10.3824 N   0  0  0  0  0  0  0  0  0  0  0  0
  -12.2102    2.5111   10.4074 N   0  0  0  0  0  0  0  0  0  0  0  0
  -11.7875    2.7773    9.1914 C   0  0  0  0  0  0  0  0  0  0  0  0
  -12.1163    1.7589    8.3336 N   0  0  0  0  0  0  0  0  0  0  0  0
   -8.6235    2.0181    5.4440 N   0  0  0  0  0  0  0  0  0  0  0  0
   -7.6556    1.2696    6.0721 C   0  0  0  0  0  0  0  0  0  0  0  0
   -6.6409    0.4434    5.5927 C   0  0  0  0  0  0  0  0  0  0  0  0
   -5.9910   -8.7019    8.4420 H   0  0  0  0  0  0  0  0  0  0  0  0
   -1.3420   -8.5237    8.6070 H   0  0  0  0  0  0  0  0  0  0  0  0
   -3.3168   -5.5803    8.0047 H   0  0  0  0  0  0  0  0  0  0  0  0
   -6.6008   -4.6647    5.7560 H   0  0  0  0  0  0  0  0  0  0  0  0
   -6.8645   -6.0790    6.3964 H   0  0  0  0  0  0  0  0  0  0  0  0
   -9.1577   -5.6589    6.9538 H   0  0  0  0  0  0  0  0  0  0  0  0
   -8.9140   -4.4420    5.7110 H   0  0  0  0  0  0  0  0  0  0  0  0
   -9.4375   -2.9706    7.3852 H   0  0  0  0  0  0  0  0  0  0  0  0
   -8.8825   -4.0820    8.6570 H   0  0  0  0  0  0  0  0  0  0  0  0
   -7.1886   -2.4902    8.2952 H   0  0  0  0  0  0  0  0  0  0  0  0
   -7.8678   -1.7488    6.0427 H   0  0  0  0  0  0  0  0  0  0  0  0
   -6.9889   -2.9739    5.2513 H   0  0  0  0  0  0  0  0  0  0  0  0
   -5.7436   -0.8657    8.6464 H   0  0  0  0  0  0  0  0  0  0  0  0
   -7.6468    0.5330    9.3827 H   0  0  0  0  0  0  0  0  0  0  0  0
  -12.2771    0.2117    5.3351 H   0  0  0  0  0  0  0  0  0  0  0  0
  -13.3044   -1.5161    6.7639 H   0  0  0  0  0  0  0  0  0  0  0  0
  -13.6125   -1.1495    9.1858 H   0  0  0  0  0  0  0  0  0  0  0  0
  -11.2520    3.6641    8.8878 H   0  0  0  0  0  0  0  0  0  0  0  0
   -8.7552    2.1120    4.4490 H   0  0  0  0  0  0  0  0  0  0  0  0
   -6.5043    0.2491    4.5354 H   0  0  0  0  0  0  0  0  0  0  0  0
  1  2  2  0
  2  3  1  0
  3  4  1  0
  4  5  2  0
  5  6  1  0
  6  7  1  0
  2  8  1  0
  8  9  1  0
  9 10  1  0
 10 11  1  0
 11 12  1  0
 12 13  1  0
 13 14  1  0
 14 15  1  0
 15 16  2  0
 16 17  1  0
 17 18  2  0
 18 19  1  0
 19 20  2  0
 20 21  1  0
 21 22  1  0
 22 23  2  0
 23 24  1  0
 24 25  2  0
 25 26  1  0
 26 27  2  0
 27 28  1  0
 28 29  2  0
 29 30  1  0
 20 31  1  0
 31 32  1  0
 32 33  2  0
  7  3  2  0
 12  8  1  0
 33 15  1  0
 32 18  1  0
 30 22  1  0
 30 26  1  0
  4 34  1  0
  6 35  1  0
  7 36  1  0
  9 37  1  0
  9 38  1  0
 10 39  1  0
 10 40  1  0
 11 41  1  0
 11 42  1  0
 12 43  1  0
 13 44  1  0
 13 45  1  0
 16 46  1  0
 17 47  1  0
 23 48  1  0
 24 49  1  0
 25 50  1  0
 29 51  1  0
 31 52  1  0
 33 53  1  0
M  END
>  <Energy>  (622) 
1356.6993253381622

>  <compound_id>  (622) 
2737

>  <target_id>  (622) 
1

>  <reference_id>  (622) 
84

>  <inspiration_ids>  (622) 
[181, 84]

>  <energy_score>  (622) 
1237.9699908338907

>  <distance_score>  (622) 
1.8471027229104835

>  <path>  (622) 
/opt/xchem-fragalysis-2/maxwin/BulkDock/SCRATCH/505736/C2737-P84/C2737-P84.minimised.mol

>  <scratch_subdir>  (622) 
/opt/xchem-fragalysis-2/maxwin/BulkDock/SCRATCH/505736/C2737-P84

>  <fragmenstein_runtime>  (622) 
10.775554656982422

>  <fragmenstein_outcome>  (622) 
too moved

>  <fragmenstein_mode>  (622) 
expansion

>  <fragmenstein_error>  (622) 


$$$$
C2739-P181
     RDKit          3D

 70 76  0  0  0  0  0  0  0  0999 V2000
  -10.5728   -1.2176    3.9847 F   0  0  0  0  0  0  0  0  0  0  0  0
   -9.3320   -0.9186    4.4490 C   0  0  0  0  0  0  0  0  0  0  0  0
   -9.5269   -0.0456    5.4538 F   0  0  0  0  0  0  0  0  0  0  0  0
   -8.6600   -0.2407    3.4151 O   0  0  0  0  0  0  0  0  0  0  0  0
   -7.6079    0.5677    3.9199 C   0  0  0  0  0  0  0  0  0  0  0  0
   -6.4918   -0.1809    4.4904 O   0  0  0  0  0  0  0  0  0  0  0  0
   -6.0557    0.3192    5.6965 C   0  0  0  0  0  0  0  0  0  0  0  0
   -5.4816    1.5845    5.6976 C   0  0  0  0  0  0  0  0  0  0  0  0
   -5.7470    2.4670    6.7333 C   0  0  0  0  0  0  0  0  0  0  0  0
   -6.8985    2.0789    7.4158 C   0  0  0  0  0  0  0  0  0  0  0  0
   -7.9423    2.8730    7.7733 N   0  0  0  0  0  0  0  0  0  0  0  0
   -8.9515    2.0366    7.7838 C   0  0  0  0  0  0  0  0  0  0  0  0
  -10.4873    2.4267    7.0817 S   0  0  0  0  0  0  0  0  0  0  0  0
  -11.4921    1.2727    7.8648 C   0  0  0  0  0  0  0  0  0  0  0  0
  -12.1432    0.3263    7.1556 C   0  0  0  0  0  0  0  0  0  0  0  0
  -13.0856   -0.5487    7.8323 C   0  0  0  0  0  0  0  0  0  0  0  0
  -13.3233   -0.4173    9.1495 C   0  0  0  0  0  0  0  0  0  0  0  0
  -12.6050    0.5322    9.9129 C   0  0  0  0  0  0  0  0  0  0  0  0
  -12.6107    0.8275   11.1922 N   0  0  0  0  0  0  0  0  0  0  0  0
  -11.7507    1.8825   11.3790 N   0  0  0  0  0  0  0  0  0  0  0  0
  -11.2333    2.1928   10.2131 C   0  0  0  0  0  0  0  0  0  0  0  0
  -11.7242    1.3601    9.2421 N   0  0  0  0  0  0  0  0  0  0  0  0
   -8.5322    0.7463    8.0030 N   0  0  0  0  0  0  0  0  0  0  0  0
   -7.2481    0.7312    7.5010 C   0  0  0  0  0  0  0  0  0  0  0  0
   -6.5602   -0.2691    6.8464 C   0  0  0  0  0  0  0  0  0  0  0  0
   -8.6355   -2.1549    4.9371 C   0  0  0  0  0  0  0  0  0  0  0  0
   -8.9442   -2.7191    6.1801 C   0  0  0  0  0  0  0  0  0  0  0  0
   -8.1155   -3.7061    6.6845 C   0  0  0  0  0  0  0  0  0  0  0  0
   -6.9740   -4.0747    5.9620 C   0  0  0  0  0  0  0  0  0  0  0  0
   -6.7000   -3.5821    4.6804 C   0  0  0  0  0  0  0  0  0  0  0  0
   -5.4723   -3.8405    4.0629 N   0  0  0  0  0  0  0  0  0  0  0  0
   -5.4446   -4.6570    2.8373 C   0  0  0  0  0  0  0  0  0  0  0  0
   -5.9142   -3.9013    1.5848 C   0  0  0  0  0  0  0  0  0  0  0  0
   -5.1875   -2.6483    1.3111 N   0  0  0  0  0  0  0  0  0  0  0  0
   -4.0571   -2.8419    0.4156 C   0  0  0  0  0  0  0  0  0  0  0  0
   -4.5139   -3.0500   -0.9891 C   0  0  0  0  0  0  0  0  0  0  0  0
   -5.5126   -2.3443   -1.7019 C   0  0  0  0  0  0  0  0  0  0  0  0
   -5.6482   -2.7711   -2.9599 N   0  0  0  0  0  0  0  0  0  0  0  0
   -4.7416   -3.7537   -3.0603 N   0  0  0  0  0  0  0  0  0  0  0  0
   -4.0346   -3.9592   -1.9117 C   0  0  0  0  0  0  0  0  0  0  0  0
   -4.8377   -1.8977    2.5389 C   0  0  0  0  0  0  0  0  0  0  0  0
   -4.6599   -2.6202    3.9155 C   0  0  0  0  0  0  0  0  0  0  0  0
   -7.6221   -2.7047    4.1474 C   0  0  0  0  0  0  0  0  0  0  0  0
   -7.1933    1.1060    3.0604 H   0  0  0  0  0  0  0  0  0  0  0  0
   -8.0084    1.3332    4.5965 H   0  0  0  0  0  0  0  0  0  0  0  0
   -5.1044    1.9810    4.7661 H   0  0  0  0  0  0  0  0  0  0  0  0
   -5.4709    3.5138    6.6644 H   0  0  0  0  0  0  0  0  0  0  0  0
  -12.0491    0.2241    6.0778 H   0  0  0  0  0  0  0  0  0  0  0  0
  -13.6397   -1.2720    7.2367 H   0  0  0  0  0  0  0  0  0  0  0  0
  -14.0720   -1.0018    9.6593 H   0  0  0  0  0  0  0  0  0  0  0  0
  -10.5234    2.9881   10.0350 H   0  0  0  0  0  0  0  0  0  0  0  0
   -9.1414   -0.0563    7.9923 H   0  0  0  0  0  0  0  0  0  0  0  0
   -6.9123   -1.2844    6.8557 H   0  0  0  0  0  0  0  0  0  0  0  0
   -9.7799   -2.3576    6.7766 H   0  0  0  0  0  0  0  0  0  0  0  0
   -8.3057   -4.1328    7.6641 H   0  0  0  0  0  0  0  0  0  0  0  0
   -6.2881   -4.7793    6.4032 H   0  0  0  0  0  0  0  0  0  0  0  0
   -4.4083   -4.9859    2.6800 H   0  0  0  0  0  0  0  0  0  0  0  0
   -6.0101   -5.5794    2.9540 H   0  0  0  0  0  0  0  0  0  0  0  0
   -6.9810   -3.6721    1.6627 H   0  0  0  0  0  0  0  0  0  0  0  0
   -5.8582   -4.5881    0.7308 H   0  0  0  0  0  0  0  0  0  0  0  0
   -3.3986   -1.9647    0.4073 H   0  0  0  0  0  0  0  0  0  0  0  0
   -3.4788   -3.7023    0.7470 H   0  0  0  0  0  0  0  0  0  0  0  0
   -6.1433   -1.5388   -1.3458 H   0  0  0  0  0  0  0  0  0  0  0  0
   -4.6561   -4.2388   -3.9474 H   0  0  0  0  0  0  0  0  0  0  0  0
   -3.2623   -4.7131   -1.8566 H   0  0  0  0  0  0  0  0  0  0  0  0
   -5.6511   -1.1794    2.6315 H   0  0  0  0  0  0  0  0  0  0  0  0
   -3.9600   -1.2578    2.3794 H   0  0  0  0  0  0  0  0  0  0  0  0
   -3.6311   -2.9371    4.0429 H   0  0  0  0  0  0  0  0  0  0  0  0
   -4.8077   -1.9274    4.7475 H   0  0  0  0  0  0  0  0  0  0  0  0
   -7.4720   -2.2938    3.1551 H   0  0  0  0  0  0  0  0  0  0  0  0
  1  2  1  0
  2  3  1  0
  2  4  1  0
  4  5  1  0
  5  6  1  0
  6  7  1  0
  7  8  2  0
  8  9  1  0
  9 10  2  0
 10 11  1  0
 11 12  2  0
 12 13  1  0
 13 14  1  0
 14 15  2  0
 15 16  1  0
 16 17  2  0
 17 18  1  0
 18 19  2  0
 19 20  1  0
 20 21  2  0
 21 22  1  0
 12 23  1  0
 23 24  1  0
 24 25  2  0
  2 26  1  0
 26 27  2  0
 27 28  1  0
 28 29  2  0
 29 30  1  0
 30 31  1  0
 31 32  1  0
 32 33  1  0
 33 34  1  0
 34 35  1  0
 35 36  1  0
 36 37  1  0
 37 38  2  0
 38 39  1  0
 39 40  1  0
 34 41  1  0
 41 42  1  0
 30 43  2  0
 25  7  1  0
 43 26  1  0
 24 10  1  0
 42 31  1  0
 22 14  1  0
 40 36  2  0
 22 18  1  0
  5 44  1  0
  5 45  1  0
  8 46  1  0
  9 47  1  0
 15 48  1  0
 16 49  1  0
 17 50  1  0
 21 51  1  0
 23 52  1  0
 25 53  1  0
 27 54  1  0
 28 55  1  0
 29 56  1  0
 32 57  1  0
 32 58  1  0
 33 59  1  0
 33 60  1  0
 35 61  1  0
 35 62  1  0
 37 63  1  0
 39 64  1  0
 40 65  1  0
 41 66  1  0
 41 67  1  0
 42 68  1  0
 42 69  1  0
 43 70  1  0
M  END
>  <Energy>  (623) 
195.68445710701195

>  <compound_id>  (623) 
2739

>  <target_id>  (623) 
1

>  <reference_id>  (623) 
181

>  <inspiration_ids>  (623) 
[181, 95]

>  <energy_score>  (623) 
9.930112352685114

>  <distance_score>  (623) 
1.681637962670211

>  <path>  (623) 
/opt/xchem-fragalysis-2/maxwin/BulkDock/SCRATCH/505736/C2739-P181/C2739-P181.minimised.mol

>  <scratch_subdir>  (623) 
/opt/xchem-fragalysis-2/maxwin/BulkDock/SCRATCH/505736/C2739-P181

>  <fragmenstein_runtime>  (623) 
11.753461837768555

>  <fragmenstein_outcome>  (623) 
too moved

>  <fragmenstein_mode>  (623) 
expansion

>  <fragmenstein_error>  (623) 


$$$$
C2739-P95
     RDKit          3D

 70 76  0  0  0  0  0  0  0  0999 V2000
  -11.1821   -1.1734    4.0865 F   0  0  0  0  0  0  0  0  0  0  0  0
   -9.8703   -1.0297    4.4051 C   0  0  0  0  0  0  0  0  0  0  0  0
   -9.8284   -0.0980    5.3847 F   0  0  0  0  0  0  0  0  0  0  0  0
   -9.2544   -0.4552    3.2645 O   0  0  0  0  0  0  0  0  0  0  0  0
   -8.1860    0.4217    3.6099 C   0  0  0  0  0  0  0  0  0  0  0  0
   -7.0215   -0.2320    4.1784 O   0  0  0  0  0  0  0  0  0  0  0  0
   -6.5485    0.4008    5.3020 C   0  0  0  0  0  0  0  0  0  0  0  0
   -5.9990    1.6757    5.1788 C   0  0  0  0  0  0  0  0  0  0  0  0
   -6.1763    2.5938    6.2088 C   0  0  0  0  0  0  0  0  0  0  0  0
   -7.0937    2.1841    7.1750 C   0  0  0  0  0  0  0  0  0  0  0  0
   -7.9910    2.9636    7.8288 N   0  0  0  0  0  0  0  0  0  0  0  0
   -9.0113    2.1438    7.9376 C   0  0  0  0  0  0  0  0  0  0  0  0
  -10.5686    2.5255    7.2566 S   0  0  0  0  0  0  0  0  0  0  0  0
  -11.5368    1.3108    7.9919 C   0  0  0  0  0  0  0  0  0  0  0  0
  -12.1554    0.3685    7.2502 C   0  0  0  0  0  0  0  0  0  0  0  0
  -13.0384   -0.5855    7.8975 C   0  0  0  0  0  0  0  0  0  0  0  0
  -13.2708   -0.5197    9.2201 C   0  0  0  0  0  0  0  0  0  0  0  0
  -12.6056    0.4447   10.0138 C   0  0  0  0  0  0  0  0  0  0  0  0
  -12.6247    0.6998   11.3022 N   0  0  0  0  0  0  0  0  0  0  0  0
  -11.8142    1.7875   11.5242 N   0  0  0  0  0  0  0  0  0  0  0  0
  -11.3136    2.1588   10.3686 C   0  0  0  0  0  0  0  0  0  0  0  0
  -11.7674    1.3368    9.3707 N   0  0  0  0  0  0  0  0  0  0  0  0
   -8.5723    0.8474    8.0778 N   0  0  0  0  0  0  0  0  0  0  0  0
   -7.4174    0.8377    7.3204 C   0  0  0  0  0  0  0  0  0  0  0  0
   -6.9233   -0.1620    6.5170 C   0  0  0  0  0  0  0  0  0  0  0  0
   -9.2167   -2.2997    4.8702 C   0  0  0  0  0  0  0  0  0  0  0  0
   -9.4413   -2.7989    6.1573 C   0  0  0  0  0  0  0  0  0  0  0  0
   -8.4988   -3.6462    6.7243 C   0  0  0  0  0  0  0  0  0  0  0  0
   -7.3327   -3.9422    6.0109 C   0  0  0  0  0  0  0  0  0  0  0  0
   -7.1603   -3.5414    4.6787 C   0  0  0  0  0  0  0  0  0  0  0  0
   -5.9272   -3.7144    4.0295 N   0  0  0  0  0  0  0  0  0  0  0  0
   -5.9676   -4.1134    2.6116 C   0  0  0  0  0  0  0  0  0  0  0  0
   -6.0923   -2.9575    1.5848 C   0  0  0  0  0  0  0  0  0  0  0  0
   -5.6187   -1.6190    1.9857 N   0  0  0  0  0  0  0  0  0  0  0  0
   -5.1204   -0.8696    0.8217 C   0  0  0  0  0  0  0  0  0  0  0  0
   -4.7789    0.5459    1.1491 C   0  0  0  0  0  0  0  0  0  0  0  0
   -5.6208    1.6780    1.0727 C   0  0  0  0  0  0  0  0  0  0  0  0
   -5.0044    2.8087    1.4252 N   0  0  0  0  0  0  0  0  0  0  0  0
   -3.7484    2.4157    1.6900 N   0  0  0  0  0  0  0  0  0  0  0  0
   -3.5603    1.0735    1.5344 C   0  0  0  0  0  0  0  0  0  0  0  0
   -4.6925   -1.6572    3.1274 C   0  0  0  0  0  0  0  0  0  0  0  0
   -5.0347   -2.5714    4.3387 C   0  0  0  0  0  0  0  0  0  0  0  0
   -8.1827   -2.8199    4.0945 C   0  0  0  0  0  0  0  0  0  0  0  0
   -7.8529    0.8690    2.6705 H   0  0  0  0  0  0  0  0  0  0  0  0
   -8.5621    1.2529    4.2220 H   0  0  0  0  0  0  0  0  0  0  0  0
   -5.6221    2.0193    4.2180 H   0  0  0  0  0  0  0  0  0  0  0  0
   -5.9439    3.6446    6.0665 H   0  0  0  0  0  0  0  0  0  0  0  0
  -12.0660    0.3118    6.1692 H   0  0  0  0  0  0  0  0  0  0  0  0
  -13.5367   -1.3261    7.2757 H   0  0  0  0  0  0  0  0  0  0  0  0
  -13.9692   -1.1761    9.7117 H   0  0  0  0  0  0  0  0  0  0  0  0
  -10.6426    2.9922   10.2155 H   0  0  0  0  0  0  0  0  0  0  0  0
   -9.1821    0.0468    8.1330 H   0  0  0  0  0  0  0  0  0  0  0  0
   -7.3072   -1.1661    6.5787 H   0  0  0  0  0  0  0  0  0  0  0  0
  -10.2917   -2.4610    6.7462 H   0  0  0  0  0  0  0  0  0  0  0  0
   -8.6276   -4.0048    7.7414 H   0  0  0  0  0  0  0  0  0  0  0  0
   -6.5521   -4.5150    6.4880 H   0  0  0  0  0  0  0  0  0  0  0  0
   -5.0408   -4.6596    2.4121 H   0  0  0  0  0  0  0  0  0  0  0  0
   -6.7646   -4.8452    2.4338 H   0  0  0  0  0  0  0  0  0  0  0  0
   -7.1435   -2.8569    1.2887 H   0  0  0  0  0  0  0  0  0  0  0  0
   -5.6057   -3.2960    0.6613 H   0  0  0  0  0  0  0  0  0  0  0  0
   -5.8941   -0.8598    0.0425 H   0  0  0  0  0  0  0  0  0  0  0  0
   -4.2405   -1.3547    0.3839 H   0  0  0  0  0  0  0  0  0  0  0  0
   -6.6611    1.7194    0.7757 H   0  0  0  0  0  0  0  0  0  0  0  0
   -3.0702    3.1187    1.9683 H   0  0  0  0  0  0  0  0  0  0  0  0
   -2.5953    0.6194    1.7079 H   0  0  0  0  0  0  0  0  0  0  0  0
   -4.5509   -0.6502    3.5335 H   0  0  0  0  0  0  0  0  0  0  0  0
   -3.7095   -1.9227    2.7570 H   0  0  0  0  0  0  0  0  0  0  0  0
   -4.1127   -2.9716    4.7604 H   0  0  0  0  0  0  0  0  0  0  0  0
   -5.4254   -1.9678    5.1584 H   0  0  0  0  0  0  0  0  0  0  0  0
   -8.0637   -2.4391    3.0904 H   0  0  0  0  0  0  0  0  0  0  0  0
  1  2  1  0
  2  3  1  0
  2  4  1  0
  4  5  1  0
  5  6  1  0
  6  7  1  0
  7  8  2  0
  8  9  1  0
  9 10  2  0
 10 11  1  0
 11 12  2  0
 12 13  1  0
 13 14  1  0
 14 15  2  0
 15 16  1  0
 16 17  2  0
 17 18  1  0
 18 19  2  0
 19 20  1  0
 20 21  2  0
 21 22  1  0
 12 23  1  0
 23 24  1  0
 24 25  2  0
  2 26  1  0
 26 27  2  0
 27 28  1  0
 28 29  2  0
 29 30  1  0
 30 31  1  0
 31 32  1  0
 32 33  1  0
 33 34  1  0
 34 35  1  0
 35 36  1  0
 36 37  1  0
 37 38  2  0
 38 39  1  0
 39 40  1  0
 34 41  1  0
 41 42  1  0
 30 43  2  0
 25  7  1  0
 43 26  1  0
 24 10  1  0
 42 31  1  0
 22 14  1  0
 40 36  2  0
 22 18  1  0
  5 44  1  0
  5 45  1  0
  8 46  1  0
  9 47  1  0
 15 48  1  0
 16 49  1  0
 17 50  1  0
 21 51  1  0
 23 52  1  0
 25 53  1  0
 27 54  1  0
 28 55  1  0
 29 56  1  0
 32 57  1  0
 32 58  1  0
 33 59  1  0
 33 60  1  0
 35 61  1  0
 35 62  1  0
 37 63  1  0
 39 64  1  0
 40 65  1  0
 41 66  1  0
 41 67  1  0
 42 68  1  0
 42 69  1  0
 43 70  1  0
M  END
>  <Energy>  (624) 
193.5974450238235

>  <compound_id>  (624) 
2739

>  <target_id>  (624) 
1

>  <reference_id>  (624) 
95

>  <inspiration_ids>  (624) 
[181, 95]

>  <energy_score>  (624) 
7.843100269497256

>  <distance_score>  (624) 
1.7450029815345773

>  <path>  (624) 
/opt/xchem-fragalysis-2/maxwin/BulkDock/SCRATCH/505736/C2739-P95/C2739-P95.minimised.mol

>  <scratch_subdir>  (624) 
/opt/xchem-fragalysis-2/maxwin/BulkDock/SCRATCH/505736/C2739-P95

>  <fragmenstein_runtime>  (624) 
10.598795413970947

>  <fragmenstein_outcome>  (624) 
too moved

>  <fragmenstein_mode>  (624) 
expansion

>  <fragmenstein_error>  (624) 


$$$$
C2740-P181
     RDKit          3D

 72 79  0  0  0  0  0  0  0  0999 V2000
   -7.1255    1.3205    0.4625 F   0  0  0  0  0  0  0  0  0  0  0  0
   -6.3401    2.4238    0.5509 C   0  0  0  0  0  0  0  0  0  0  0  0
   -5.3825    2.2970   -0.4008 F   0  0  0  0  0  0  0  0  0  0  0  0
   -5.6702    2.4718    1.8120 O   0  0  0  0  0  0  0  0  0  0  0  0
   -5.4404    1.2070    2.3957 C   0  0  0  0  0  0  0  0  0  0  0  0
   -5.3511    1.1804    3.8454 O   0  0  0  0  0  0  0  0  0  0  0  0
   -6.2366    1.9123    4.6221 C   0  0  0  0  0  0  0  0  0  0  0  0
   -5.9436    3.6246    4.5057 C   0  0  0  0  0  0  0  0  0  0  0  0
   -6.8610    4.6793    5.5440 C   0  0  0  0  0  0  0  0  0  0  0  0
   -7.9504    4.1268    6.7757 C   0  0  0  0  0  0  0  0  0  0  0  0
   -8.8626    4.7921    7.5553 N   0  0  0  0  0  0  0  0  0  0  0  0
   -9.5262    3.8559    8.2161 C   0  0  0  0  0  0  0  0  0  0  0  0
  -11.0215    4.1251    9.0660 S   0  0  0  0  0  0  0  0  0  0  0  0
  -11.8372    2.6105    8.7724 C   0  0  0  0  0  0  0  0  0  0  0  0
  -12.1598    2.1898    7.5284 C   0  0  0  0  0  0  0  0  0  0  0  0
  -12.8165    0.9007    7.3468 C   0  0  0  0  0  0  0  0  0  0  0  0
  -13.1236    0.1144    8.3955 C   0  0  0  0  0  0  0  0  0  0  0  0
  -12.8085    0.5513    9.7084 C   0  0  0  0  0  0  0  0  0  0  0  0
  -12.9887    0.0058   10.8899 N   0  0  0  0  0  0  0  0  0  0  0  0
  -12.4978    0.8718   11.8340 N   0  0  0  0  0  0  0  0  0  0  0  0
  -12.0326    1.9288   11.2077 C   0  0  0  0  0  0  0  0  0  0  0  0
  -12.1873    1.7861    9.8541 N   0  0  0  0  0  0  0  0  0  0  0  0
   -9.0046    2.5851    8.1594 N   0  0  0  0  0  0  0  0  0  0  0  0
   -8.1805    2.5417    7.0900 C   0  0  0  0  0  0  0  0  0  0  0  0
   -7.4451    1.3282    6.0562 C   0  0  0  0  0  0  0  0  0  0  0  0
   -7.1440    3.5822    0.2104 O   0  0  0  0  0  0  0  0  0  0  0  0
   -8.1308    3.7552    1.1510 C   0  0  0  0  0  0  0  0  0  0  0  0
   -9.4633    3.5561    0.8368 C   0  0  0  0  0  0  0  0  0  0  0  0
  -10.3837    3.4729    1.8804 C   0  0  0  0  0  0  0  0  0  0  0  0
   -9.9311    3.4415    3.2083 C   0  0  0  0  0  0  0  0  0  0  0  0
   -8.5590    3.6030    3.5155 C   0  0  0  0  0  0  0  0  0  0  0  0
   -8.0133    2.7041    4.8039 C   0  0  0  0  0  0  0  0  0  0  0  0
   -8.1825    0.9471    4.0211 C   0  0  0  0  0  0  0  0  0  0  0  0
   -7.2845   -0.4328    4.6468 N   0  0  0  0  0  0  0  0  0  0  0  0
   -8.1091   -1.4704    5.1964 C   0  0  0  0  0  0  0  0  0  0  0  0
   -9.3472   -1.2894    5.7236 C   0  0  0  0  0  0  0  0  0  0  0  0
   -9.8386   -2.2053    6.7417 C   0  0  0  0  0  0  0  0  0  0  0  0
   -9.0786   -3.2239    7.1740 C   0  0  0  0  0  0  0  0  0  0  0  0
   -7.8874   -3.5342    6.4994 C   0  0  0  0  0  0  0  0  0  0  0  0
   -6.9919   -4.4706    6.6703 N   0  0  0  0  0  0  0  0  0  0  0  0
   -6.0154   -4.2647    5.7322 N   0  0  0  0  0  0  0  0  0  0  0  0
   -6.3296   -3.2197    5.0159 C   0  0  0  0  0  0  0  0  0  0  0  0
   -7.4769   -2.6773    5.5026 N   0  0  0  0  0  0  0  0  0  0  0  0
   -5.8015   -0.2080    5.6815 C   0  0  0  0  0  0  0  0  0  0  0  0
   -5.4172    1.3940    6.5534 C   0  0  0  0  0  0  0  0  0  0  0  0
   -6.4819    2.8294    6.1657 O   0  0  0  0  0  0  0  0  0  0  0  0
   -7.7506    4.0114    2.4612 C   0  0  0  0  0  0  0  0  0  0  0  0
   -4.4660    0.8599    2.0349 H   0  0  0  0  0  0  0  0  0  0  0  0
   -6.1569    0.4370    2.0993 H   0  0  0  0  0  0  0  0  0  0  0  0
   -5.1702    4.0319    3.8656 H   0  0  0  0  0  0  0  0  0  0  0  0
   -6.7454    5.7571    5.4699 H   0  0  0  0  0  0  0  0  0  0  0  0
  -11.9492    2.7799    6.6407 H   0  0  0  0  0  0  0  0  0  0  0  0
  -13.0668    0.5880    6.3360 H   0  0  0  0  0  0  0  0  0  0  0  0
  -13.6202   -0.8434    8.2680 H   0  0  0  0  0  0  0  0  0  0  0  0
  -11.5891    2.7931   11.6816 H   0  0  0  0  0  0  0  0  0  0  0  0
   -9.3537    1.7879    8.6672 H   0  0  0  0  0  0  0  0  0  0  0  0
   -7.6480    0.3785    6.5359 H   0  0  0  0  0  0  0  0  0  0  0  0
   -9.7801    3.4236   -0.1928 H   0  0  0  0  0  0  0  0  0  0  0  0
  -11.4370    3.3129    1.6620 H   0  0  0  0  0  0  0  0  0  0  0  0
  -10.6465    3.1818    3.9868 H   0  0  0  0  0  0  0  0  0  0  0  0
   -8.9825    2.7553    5.3433 H   0  0  0  0  0  0  0  0  0  0  0  0
   -7.9416    1.0110    2.9565 H   0  0  0  0  0  0  0  0  0  0  0  0
   -9.2518    0.7092    4.0476 H   0  0  0  0  0  0  0  0  0  0  0  0
   -9.9075   -0.3669    5.6433 H   0  0  0  0  0  0  0  0  0  0  0  0
  -10.7614   -1.9564    7.2601 H   0  0  0  0  0  0  0  0  0  0  0  0
   -9.3301   -3.8113    8.0431 H   0  0  0  0  0  0  0  0  0  0  0  0
   -5.7784   -2.8094    4.1838 H   0  0  0  0  0  0  0  0  0  0  0  0
   -5.9001   -0.9211    6.5127 H   0  0  0  0  0  0  0  0  0  0  0  0
   -4.9354   -0.5551    5.1021 H   0  0  0  0  0  0  0  0  0  0  0  0
   -4.4090    1.7610    6.3503 H   0  0  0  0  0  0  0  0  0  0  0  0
   -5.5797    1.2698    7.6276 H   0  0  0  0  0  0  0  0  0  0  0  0
   -6.7387    4.3578    2.5813 H   0  0  0  0  0  0  0  0  0  0  0  0
  1  2  1  0
  2  3  1  0
  2  4  1  0
  4  5  1  0
  5  6  1  0
  6  7  1  0
  7  8  2  0
  8  9  1  0
  9 10  2  0
 10 11  1  0
 11 12  2  0
 12 13  1  0
 13 14  1  0
 14 15  2  0
 15 16  1  0
 16 17  2  0
 17 18  1  0
 18 19  2  0
 19 20  1  0
 20 21  2  0
 21 22  1  0
 12 23  1  0
 23 24  1  0
 24 25  2  0
  2 26  1  0
 26 27  1  0
 27 28  2  0
 28 29  1  0
 29 30  2  0
 30 31  1  0
 31 32  1  0
 32 33  1  0
 33 34  1  0
 34 35  1  0
 35 36  2  0
 36 37  1  0
 37 38  2  0
 38 39  1  0
 39 40  2  0
 40 41  1  0
 41 42  2  0
 42 43  1  0
 34 44  1  0
 44 45  1  0
 45 46  1  0
 31 47  2  0
 25  7  1  0
 47 27  1  0
 24 10  1  0
 46 32  1  0
 22 14  1  0
 43 35  1  0
 22 18  1  0
 43 39  1  0
  5 48  1  0
  5 49  1  0
  8 50  1  0
  9 51  1  0
 15 52  1  0
 16 53  1  0
 17 54  1  0
 21 55  1  0
 23 56  1  0
 25 57  1  0
 28 58  1  0
 29 59  1  0
 30 60  1  0
 32 61  1  0
 33 62  1  0
 33 63  1  0
 36 64  1  0
 37 65  1  0
 38 66  1  0
 42 67  1  0
 44 68  1  0
 44 69  1  0
 45 70  1  0
 45 71  1  0
 47 72  1  0
M  END
>  <Energy>  (625) 
1395.2936419134337

>  <compound_id>  (625) 
2740

>  <target_id>  (625) 
1

>  <reference_id>  (625) 
181

>  <inspiration_ids>  (625) 
[181, 99]

>  <energy_score>  (625) 
1155.5708750739218

>  <distance_score>  (625) 
3.460033719871423

>  <path>  (625) 
/opt/xchem-fragalysis-2/maxwin/BulkDock/SCRATCH/505736/C2740-P181/C2740-P181.minimised.mol

>  <scratch_subdir>  (625) 
/opt/xchem-fragalysis-2/maxwin/BulkDock/SCRATCH/505736/C2740-P181

>  <fragmenstein_runtime>  (625) 
11.347421884536743

>  <fragmenstein_outcome>  (625) 
too moved

>  <fragmenstein_mode>  (625) 
expansion

>  <fragmenstein_error>  (625) 


$$$$
C2740-P99
     RDKit          3D

 72 79  0  0  0  0  0  0  0  0999 V2000
   -2.4841   -1.4302    6.2716 F   0  0  0  0  0  0  0  0  0  0  0  0
   -3.7869   -1.1570    5.9997 C   0  0  0  0  0  0  0  0  0  0  0  0
   -4.1301   -0.3561    7.0374 F   0  0  0  0  0  0  0  0  0  0  0  0
   -4.4583   -2.3968    6.0770 O   0  0  0  0  0  0  0  0  0  0  0  0
   -5.6659   -2.3347    6.8114 C   0  0  0  0  0  0  0  0  0  0  0  0
   -6.7595   -2.0020    5.9838 O   0  0  0  0  0  0  0  0  0  0  0  0
   -7.7073   -1.0808    6.3545 C   0  0  0  0  0  0  0  0  0  0  0  0
   -7.1334    0.1553    7.4541 C   0  0  0  0  0  0  0  0  0  0  0  0
   -8.1075    1.5376    7.6954 C   0  0  0  0  0  0  0  0  0  0  0  0
   -9.6892    1.7218    7.0677 C   0  0  0  0  0  0  0  0  0  0  0  0
  -10.5789    2.7333    7.2424 N   0  0  0  0  0  0  0  0  0  0  0  0
  -11.6887    2.3071    6.6827 C   0  0  0  0  0  0  0  0  0  0  0  0
  -13.2325    3.0212    6.9982 S   0  0  0  0  0  0  0  0  0  0  0  0
  -13.6831    1.8450    8.1995 C   0  0  0  0  0  0  0  0  0  0  0  0
  -14.6362    0.9329    7.9144 C   0  0  0  0  0  0  0  0  0  0  0  0
  -14.9910   -0.0677    8.9045 C   0  0  0  0  0  0  0  0  0  0  0  0
  -14.3952   -0.1048   10.1097 C   0  0  0  0  0  0  0  0  0  0  0  0
  -13.3910    0.8445   10.4270 C   0  0  0  0  0  0  0  0  0  0  0  0
  -12.6736    1.0377   11.5109 N   0  0  0  0  0  0  0  0  0  0  0  0
  -11.8548    2.1180   11.2818 N   0  0  0  0  0  0  0  0  0  0  0  0
  -12.0893    2.5497   10.0621 C   0  0  0  0  0  0  0  0  0  0  0  0
  -13.0619    1.7905    9.4627 N   0  0  0  0  0  0  0  0  0  0  0  0
  -11.6470    1.1384    5.9590 N   0  0  0  0  0  0  0  0  0  0  0  0
  -10.4273    0.5793    6.1298 C   0  0  0  0  0  0  0  0  0  0  0  0
   -9.5347   -0.8671    5.6467 C   0  0  0  0  0  0  0  0  0  0  0  0
   -3.7994   -0.5179    4.7080 O   0  0  0  0  0  0  0  0  0  0  0  0
   -4.7863    0.3684    4.3921 C   0  0  0  0  0  0  0  0  0  0  0  0
   -4.9108    0.8089    3.0815 C   0  0  0  0  0  0  0  0  0  0  0  0
   -5.9641    1.6688    2.7382 C   0  0  0  0  0  0  0  0  0  0  0  0
   -6.9791    1.9401    3.6695 C   0  0  0  0  0  0  0  0  0  0  0  0
   -6.8949    1.4097    4.9734 C   0  0  0  0  0  0  0  0  0  0  0  0
   -8.2479    0.5599    5.4576 C   0  0  0  0  0  0  0  0  0  0  0  0
   -8.0902   -0.7956    4.0816 C   0  0  0  0  0  0  0  0  0  0  0  0
   -8.4979   -2.4666    4.3861 N   0  0  0  0  0  0  0  0  0  0  0  0
   -7.8728   -3.3070    3.4619 C   0  0  0  0  0  0  0  0  0  0  0  0
   -6.7579   -4.0305    3.6924 C   0  0  0  0  0  0  0  0  0  0  0  0
   -6.1244   -4.7709    2.6155 C   0  0  0  0  0  0  0  0  0  0  0  0
   -6.6243   -4.7563    1.3690 C   0  0  0  0  0  0  0  0  0  0  0  0
   -7.7955   -4.0055    1.1029 C   0  0  0  0  0  0  0  0  0  0  0  0
   -8.5096   -3.8270    0.0141 N   0  0  0  0  0  0  0  0  0  0  0  0
   -9.5500   -2.9799    0.3242 N   0  0  0  0  0  0  0  0  0  0  0  0
   -9.4484   -2.6769    1.5970 C   0  0  0  0  0  0  0  0  0  0  0  0
   -8.3631   -3.3008    2.1478 N   0  0  0  0  0  0  0  0  0  0  0  0
   -8.9936   -3.0914    5.9523 C   0  0  0  0  0  0  0  0  0  0  0  0
   -9.3598   -1.9848    7.4056 C   0  0  0  0  0  0  0  0  0  0  0  0
   -9.0059   -0.1930    7.2126 O   0  0  0  0  0  0  0  0  0  0  0  0
   -5.6545    0.9062    5.3224 C   0  0  0  0  0  0  0  0  0  0  0  0
   -5.8599   -3.3658    7.1176 H   0  0  0  0  0  0  0  0  0  0  0  0
   -5.5711   -1.7882    7.7501 H   0  0  0  0  0  0  0  0  0  0  0  0
   -6.2112    0.0909    8.0152 H   0  0  0  0  0  0  0  0  0  0  0  0
   -7.7826    2.3263    8.3669 H   0  0  0  0  0  0  0  0  0  0  0  0
  -15.1599    0.9047    6.9636 H   0  0  0  0  0  0  0  0  0  0  0  0
  -15.7578   -0.7917    8.6465 H   0  0  0  0  0  0  0  0  0  0  0  0
  -14.6649   -0.8449   10.8531 H   0  0  0  0  0  0  0  0  0  0  0  0
  -11.5963    3.3829    9.5826 H   0  0  0  0  0  0  0  0  0  0  0  0
  -12.4392    0.7088    5.5068 H   0  0  0  0  0  0  0  0  0  0  0  0
  -10.1737   -1.4814    5.0027 H   0  0  0  0  0  0  0  0  0  0  0  0
   -4.1952    0.4961    2.3264 H   0  0  0  0  0  0  0  0  0  0  0  0
   -6.0563    2.0275    1.7153 H   0  0  0  0  0  0  0  0  0  0  0  0
   -7.8960    2.4128    3.3211 H   0  0  0  0  0  0  0  0  0  0  0  0
   -8.9724    1.2766    5.0143 H   0  0  0  0  0  0  0  0  0  0  0  0
   -7.0658   -0.8335    3.7063 H   0  0  0  0  0  0  0  0  0  0  0  0
   -8.7438   -0.4622    3.2623 H   0  0  0  0  0  0  0  0  0  0  0  0
   -6.2952   -4.0701    4.6675 H   0  0  0  0  0  0  0  0  0  0  0  0
   -5.2286   -5.3397    2.8392 H   0  0  0  0  0  0  0  0  0  0  0  0
   -6.1505   -5.2990    0.5578 H   0  0  0  0  0  0  0  0  0  0  0  0
  -10.1213   -2.0543    2.1662 H   0  0  0  0  0  0  0  0  0  0  0  0
   -9.9203   -3.6459    5.7539 H   0  0  0  0  0  0  0  0  0  0  0  0
   -8.2481   -3.8295    6.2751 H   0  0  0  0  0  0  0  0  0  0  0  0
   -8.7574   -2.2610    8.2790 H   0  0  0  0  0  0  0  0  0  0  0  0
  -10.4338   -1.9808    7.6312 H   0  0  0  0  0  0  0  0  0  0  0  0
   -5.3994    0.9009    6.3595 H   0  0  0  0  0  0  0  0  0  0  0  0
  1  2  1  0
  2  3  1  0
  2  4  1  0
  4  5  1  0
  5  6  1  0
  6  7  1  0
  7  8  2  0
  8  9  1  0
  9 10  2  0
 10 11  1  0
 11 12  2  0
 12 13  1  0
 13 14  1  0
 14 15  2  0
 15 16  1  0
 16 17  2  0
 17 18  1  0
 18 19  2  0
 19 20  1  0
 20 21  2  0
 21 22  1  0
 12 23  1  0
 23 24  1  0
 24 25  2  0
  2 26  1  0
 26 27  1  0
 27 28  2  0
 28 29  1  0
 29 30  2  0
 30 31  1  0
 31 32  1  0
 32 33  1  0
 33 34  1  0
 34 35  1  0
 35 36  2  0
 36 37  1  0
 37 38  2  0
 38 39  1  0
 39 40  2  0
 40 41  1  0
 41 42  2  0
 42 43  1  0
 34 44  1  0
 44 45  1  0
 45 46  1  0
 31 47  2  0
 25  7  1  0
 47 27  1  0
 24 10  1  0
 46 32  1  0
 22 14  1  0
 43 35  1  0
 22 18  1  0
 43 39  1  0
  5 48  1  0
  5 49  1  0
  8 50  1  0
  9 51  1  0
 15 52  1  0
 16 53  1  0
 17 54  1  0
 21 55  1  0
 23 56  1  0
 25 57  1  0
 28 58  1  0
 29 59  1  0
 30 60  1  0
 32 61  1  0
 33 62  1  0
 33 63  1  0
 36 64  1  0
 37 65  1  0
 38 66  1  0
 42 67  1  0
 44 68  1  0
 44 69  1  0
 45 70  1  0
 45 71  1  0
 47 72  1  0
M  END
>  <Energy>  (626) 
1384.5214127169406

>  <compound_id>  (626) 
2740

>  <target_id>  (626) 
1

>  <reference_id>  (626) 
99

>  <inspiration_ids>  (626) 
[181, 99]

>  <energy_score>  (626) 
1144.798645877434

>  <distance_score>  (626) 
4.000024951041152

>  <path>  (626) 
/opt/xchem-fragalysis-2/maxwin/BulkDock/SCRATCH/505736/C2740-P99/C2740-P99.minimised.mol

>  <scratch_subdir>  (626) 
/opt/xchem-fragalysis-2/maxwin/BulkDock/SCRATCH/505736/C2740-P99

>  <fragmenstein_runtime>  (626) 
10.045559644699097

>  <fragmenstein_outcome>  (626) 
too moved

>  <fragmenstein_mode>  (626) 
expansion

>  <fragmenstein_error>  (626) 


$$$$
C2741-P181
     RDKit          3D

 70 77  0  0  0  0  0  0  0  0999 V2000
  -11.2687   -2.4158    6.8271 C   0  0  0  0  0  0  0  0  0  0  0  0
  -10.4518   -1.1550    7.7676 S   0  0  0  0  0  0  0  0  0  0  0  0
  -10.4819   -0.0287    6.8605 O   0  0  0  0  0  0  0  0  0  0  0  0
   -9.0621   -1.7230    8.2635 N   0  0  0  0  0  0  0  0  0  0  0  0
   -7.8149   -1.3344    7.5018 C   0  0  0  0  0  0  0  0  0  0  0  0
   -6.8379   -0.5005    8.0743 C   0  0  0  0  0  0  0  0  0  0  0  0
   -6.2490    0.5321    7.3291 C   0  0  0  0  0  0  0  0  0  0  0  0
   -7.0233    0.8515    6.2233 C   0  0  0  0  0  0  0  0  0  0  0  0
   -7.3885    2.0862    5.7569 N   0  0  0  0  0  0  0  0  0  0  0  0
   -8.4996    1.8308    5.1051 C   0  0  0  0  0  0  0  0  0  0  0  0
   -9.7651    2.9319    4.7195 S   0  0  0  0  0  0  0  0  0  0  0  0
  -11.0961    2.2888    5.6434 C   0  0  0  0  0  0  0  0  0  0  0  0
  -12.1053    1.6242    5.0340 C   0  0  0  0  0  0  0  0  0  0  0  0
  -13.2837    1.2247    5.7956 C   0  0  0  0  0  0  0  0  0  0  0  0
  -13.4363    1.5905    7.0802 C   0  0  0  0  0  0  0  0  0  0  0  0
  -12.3709    2.2478    7.7496 C   0  0  0  0  0  0  0  0  0  0  0  0
  -12.2188    2.6467    8.9903 N   0  0  0  0  0  0  0  0  0  0  0  0
  -10.9485    3.1471    9.1071 N   0  0  0  0  0  0  0  0  0  0  0  0
  -10.3645    3.0778    7.9379 C   0  0  0  0  0  0  0  0  0  0  0  0
  -11.2241    2.5442    7.0196 N   0  0  0  0  0  0  0  0  0  0  0  0
   -8.5839    0.5159    4.7457 N   0  0  0  0  0  0  0  0  0  0  0  0
   -7.7665   -0.1567    5.6193 C   0  0  0  0  0  0  0  0  0  0  0  0
   -7.8801   -1.4460    6.1195 C   0  0  0  0  0  0  0  0  0  0  0  0
  -11.6156   -0.6905    9.0759 C   0  0  0  0  0  0  0  0  0  0  0  0
  -11.1345   -0.1359   10.2376 C   0  0  0  0  0  0  0  0  0  0  0  0
  -12.0322    0.3280   11.2334 C   0  0  0  0  0  0  0  0  0  0  0  0
  -13.4109    0.3744   11.0859 C   0  0  0  0  0  0  0  0  0  0  0  0
  -14.2681    1.0657   12.1407 C   0  0  0  0  0  0  0  0  0  0  0  0
  -13.5732    2.1128   13.0893 C   0  0  0  0  0  0  0  0  0  0  0  0
  -13.3900    3.4346   12.4601 N   0  0  0  0  0  0  0  0  0  0  0  0
  -12.1815    4.1499   12.4122 C   0  0  0  0  0  0  0  0  0  0  0  0
  -11.0513    3.6558   11.8750 C   0  0  0  0  0  0  0  0  0  0  0  0
   -9.9121    4.5090   11.6117 C   0  0  0  0  0  0  0  0  0  0  0  0
   -9.8571    5.7814   12.0202 C   0  0  0  0  0  0  0  0  0  0  0  0
  -10.9824    6.3158   12.6848 C   0  0  0  0  0  0  0  0  0  0  0  0
  -11.2420    7.5280   13.1270 N   0  0  0  0  0  0  0  0  0  0  0  0
  -12.5254    7.5278   13.6185 N   0  0  0  0  0  0  0  0  0  0  0  0
  -13.0076    6.3123   13.4772 C   0  0  0  0  0  0  0  0  0  0  0  0
  -12.1017    5.4991   12.8447 N   0  0  0  0  0  0  0  0  0  0  0  0
  -14.6226    3.9371   11.8373 C   0  0  0  0  0  0  0  0  0  0  0  0
  -15.2205    2.8740   10.9044 C   0  0  0  0  0  0  0  0  0  0  0  0
  -15.4774    1.6254   11.5736 O   0  0  0  0  0  0  0  0  0  0  0  0
  -13.8980   -0.2496    9.9373 C   0  0  0  0  0  0  0  0  0  0  0  0
  -13.0128   -0.7855    8.9469 C   0  0  0  0  0  0  0  0  0  0  0  0
  -10.5394   -3.1733    6.5407 H   0  0  0  0  0  0  0  0  0  0  0  0
  -12.0941   -2.8624    7.3689 H   0  0  0  0  0  0  0  0  0  0  0  0
  -11.6770   -1.9602    5.9207 H   0  0  0  0  0  0  0  0  0  0  0  0
   -6.6821   -0.5002    9.1438 H   0  0  0  0  0  0  0  0  0  0  0  0
   -5.6034    1.2738    7.7655 H   0  0  0  0  0  0  0  0  0  0  0  0
  -12.1096    1.4209    3.9680 H   0  0  0  0  0  0  0  0  0  0  0  0
  -14.0729    0.6927    5.2716 H   0  0  0  0  0  0  0  0  0  0  0  0
  -14.3428    1.3673    7.6288 H   0  0  0  0  0  0  0  0  0  0  0  0
   -9.3536    3.3839    7.7111 H   0  0  0  0  0  0  0  0  0  0  0  0
   -9.3881    0.1216    4.2861 H   0  0  0  0  0  0  0  0  0  0  0  0
   -8.5685   -2.1448    5.6612 H   0  0  0  0  0  0  0  0  0  0  0  0
  -10.0611   -0.0179   10.3533 H   0  0  0  0  0  0  0  0  0  0  0  0
  -11.6017    0.7528   12.1236 H   0  0  0  0  0  0  0  0  0  0  0  0
  -14.6141    0.2541   12.7925 H   0  0  0  0  0  0  0  0  0  0  0  0
  -12.6468    1.7403   13.5361 H   0  0  0  0  0  0  0  0  0  0  0  0
  -14.2545    2.2727   13.9366 H   0  0  0  0  0  0  0  0  0  0  0  0
  -11.0036    2.6659   11.4585 H   0  0  0  0  0  0  0  0  0  0  0  0
   -9.1468    4.1173   10.9647 H   0  0  0  0  0  0  0  0  0  0  0  0
   -9.0210    6.4281   11.7852 H   0  0  0  0  0  0  0  0  0  0  0  0
  -13.9693    5.9661   13.8204 H   0  0  0  0  0  0  0  0  0  0  0  0
  -15.3386    4.1704   12.6333 H   0  0  0  0  0  0  0  0  0  0  0  0
  -14.4406    4.8533   11.2643 H   0  0  0  0  0  0  0  0  0  0  0  0
  -16.1802    3.2326   10.5179 H   0  0  0  0  0  0  0  0  0  0  0  0
  -14.5743    2.6977   10.0415 H   0  0  0  0  0  0  0  0  0  0  0  0
  -14.9709   -0.3024    9.7612 H   0  0  0  0  0  0  0  0  0  0  0  0
  -13.4607   -1.2215    8.0572 H   0  0  0  0  0  0  0  0  0  0  0  0
  1  2  1  0
  2  3  2  0
  2  4  2  0
  4  5  1  0
  5  6  2  0
  6  7  1  0
  7  8  2  0
  8  9  1  0
  9 10  2  0
 10 11  1  0
 11 12  1  0
 12 13  2  0
 13 14  1  0
 14 15  2  0
 15 16  1  0
 16 17  2  0
 17 18  1  0
 18 19  2  0
 19 20  1  0
 10 21  1  0
 21 22  1  0
 22 23  2  0
  2 24  1  0
 24 25  2  0
 25 26  1  0
 26 27  2  0
 27 28  1  0
 28 29  1  0
 29 30  1  0
 30 31  1  0
 31 32  2  0
 32 33  1  0
 33 34  2  0
 34 35  1  0
 35 36  2  0
 36 37  1  0
 37 38  2  0
 38 39  1  0
 30 40  1  0
 40 41  1  0
 41 42  1  0
 27 43  1  0
 43 44  2  0
 23  5  1  0
 44 24  1  0
 22  8  1  0
 42 28  1  0
 20 12  1  0
 39 31  1  0
 20 16  1  0
 39 35  1  0
  1 45  1  0
  1 46  1  0
  1 47  1  0
  6 48  1  0
  7 49  1  0
 13 50  1  0
 14 51  1  0
 15 52  1  0
 19 53  1  0
 21 54  1  0
 23 55  1  0
 25 56  1  0
 26 57  1  0
 28 58  1  0
 29 59  1  0
 29 60  1  0
 32 61  1  0
 33 62  1  0
 34 63  1  0
 38 64  1  0
 40 65  1  0
 40 66  1  0
 41 67  1  0
 41 68  1  0
 43 69  1  0
 44 70  1  0
M  END
>  <Energy>  (627) 
256.99552217705337

>  <compound_id>  (627) 
2741

>  <target_id>  (627) 
1

>  <reference_id>  (627) 
181

>  <inspiration_ids>  (627) 
[181, 100]

>  <energy_score>  (627) 
-15.836117240552198

>  <distance_score>  (627) 
2.4758111777675738

>  <path>  (627) 
/opt/xchem-fragalysis-2/maxwin/BulkDock/SCRATCH/505736/C2741-P181/C2741-P181.minimised.mol

>  <scratch_subdir>  (627) 
/opt/xchem-fragalysis-2/maxwin/BulkDock/SCRATCH/505736/C2741-P181

>  <fragmenstein_runtime>  (627) 
9.015142917633057

>  <fragmenstein_outcome>  (627) 
too moved

>  <fragmenstein_mode>  (627) 
expansion

>  <fragmenstein_error>  (627) 


$$$$
C2741-P100
     RDKit          3D

 70 77  0  0  0  0  0  0  0  0999 V2000
  -11.1178   -2.5725    6.8393 C   0  0  0  0  0  0  0  0  0  0  0  0
  -10.3667   -1.3039    7.8274 S   0  0  0  0  0  0  0  0  0  0  0  0
  -10.4085   -0.1496    6.9561 O   0  0  0  0  0  0  0  0  0  0  0  0
   -8.9872   -1.8625    8.3575 N   0  0  0  0  0  0  0  0  0  0  0  0
   -7.7384   -1.3570    7.7055 C   0  0  0  0  0  0  0  0  0  0  0  0
   -6.9516   -0.4247    8.3952 C   0  0  0  0  0  0  0  0  0  0  0  0
   -6.4611    0.7043    7.7338 C   0  0  0  0  0  0  0  0  0  0  0  0
   -7.0749    0.9295    6.5103 C   0  0  0  0  0  0  0  0  0  0  0  0
   -7.4700    2.1276    5.9877 N   0  0  0  0  0  0  0  0  0  0  0  0
   -8.4630    1.7792    5.2055 C   0  0  0  0  0  0  0  0  0  0  0  0
   -9.7726    2.7727    4.7006 S   0  0  0  0  0  0  0  0  0  0  0  0
  -11.0823    2.1493    5.6669 C   0  0  0  0  0  0  0  0  0  0  0  0
  -12.1006    1.4824    5.0761 C   0  0  0  0  0  0  0  0  0  0  0  0
  -13.2796    1.1116    5.8473 C   0  0  0  0  0  0  0  0  0  0  0  0
  -13.4125    1.4845    7.1312 C   0  0  0  0  0  0  0  0  0  0  0  0
  -12.3269    2.1179    7.7910 C   0  0  0  0  0  0  0  0  0  0  0  0
  -12.1496    2.4887    9.0369 N   0  0  0  0  0  0  0  0  0  0  0  0
  -10.8837    3.0024    9.1342 N   0  0  0  0  0  0  0  0  0  0  0  0
  -10.3264    2.9635    7.9499 C   0  0  0  0  0  0  0  0  0  0  0  0
  -11.1913    2.4171    7.0435 N   0  0  0  0  0  0  0  0  0  0  0  0
   -8.3935    0.4611    4.8504 N   0  0  0  0  0  0  0  0  0  0  0  0
   -7.6338   -0.1415    5.8246 C   0  0  0  0  0  0  0  0  0  0  0  0
   -7.6950   -1.4396    6.3162 C   0  0  0  0  0  0  0  0  0  0  0  0
  -11.5468   -0.8800    9.1389 C   0  0  0  0  0  0  0  0  0  0  0  0
  -11.0772   -0.4434   10.3608 C   0  0  0  0  0  0  0  0  0  0  0  0
  -11.9709    0.0277   11.3570 C   0  0  0  0  0  0  0  0  0  0  0  0
  -13.3354    0.1937   11.1331 C   0  0  0  0  0  0  0  0  0  0  0  0
  -14.2054    0.9169   12.1562 C   0  0  0  0  0  0  0  0  0  0  0  0
  -13.5140    1.9975   13.0540 C   0  0  0  0  0  0  0  0  0  0  0  0
  -13.3305    3.2893   12.3656 N   0  0  0  0  0  0  0  0  0  0  0  0
  -12.1136    3.9881   12.3125 C   0  0  0  0  0  0  0  0  0  0  0  0
  -10.9657    3.4220   11.8978 C   0  0  0  0  0  0  0  0  0  0  0  0
   -9.7830    4.2217   11.6666 C   0  0  0  0  0  0  0  0  0  0  0  0
   -9.7150    5.5194   11.9870 C   0  0  0  0  0  0  0  0  0  0  0  0
  -10.8631    6.1305   12.5380 C   0  0  0  0  0  0  0  0  0  0  0  0
  -11.1013    7.3675   12.9216 N   0  0  0  0  0  0  0  0  0  0  0  0
  -12.4105    7.4330   13.3348 N   0  0  0  0  0  0  0  0  0  0  0  0
  -12.9313    6.2324   13.2026 C   0  0  0  0  0  0  0  0  0  0  0  0
  -12.0195    5.3602   12.6629 N   0  0  0  0  0  0  0  0  0  0  0  0
  -14.5640    3.7765   11.7396 C   0  0  0  0  0  0  0  0  0  0  0  0
  -15.1800    2.6788   10.8604 C   0  0  0  0  0  0  0  0  0  0  0  0
  -15.4208    1.4509   11.5735 O   0  0  0  0  0  0  0  0  0  0  0  0
  -13.8177   -0.3525    9.9390 C   0  0  0  0  0  0  0  0  0  0  0  0
  -12.9360   -0.8955    8.9551 C   0  0  0  0  0  0  0  0  0  0  0  0
  -12.0310   -2.9506    7.2898 H   0  0  0  0  0  0  0  0  0  0  0  0
  -10.4006   -3.3790    6.6829 H   0  0  0  0  0  0  0  0  0  0  0  0
  -11.3678   -2.1422    5.8657 H   0  0  0  0  0  0  0  0  0  0  0  0
   -6.9548   -0.4265    9.4800 H   0  0  0  0  0  0  0  0  0  0  0  0
   -6.0725    1.5520    8.2652 H   0  0  0  0  0  0  0  0  0  0  0  0
  -12.1129    1.2663    4.0124 H   0  0  0  0  0  0  0  0  0  0  0  0
  -14.0870    0.6044    5.3283 H   0  0  0  0  0  0  0  0  0  0  0  0
  -14.3203    1.2875    7.6868 H   0  0  0  0  0  0  0  0  0  0  0  0
   -9.3284    3.2964    7.7058 H   0  0  0  0  0  0  0  0  0  0  0  0
   -9.0909   -0.0049    4.2932 H   0  0  0  0  0  0  0  0  0  0  0  0
   -8.2858   -2.1855    5.7945 H   0  0  0  0  0  0  0  0  0  0  0  0
  -10.0044   -0.4349   10.5149 H   0  0  0  0  0  0  0  0  0  0  0  0
  -11.5434    0.3515   12.2970 H   0  0  0  0  0  0  0  0  0  0  0  0
  -14.5482    0.1288   12.8372 H   0  0  0  0  0  0  0  0  0  0  0  0
  -14.1929    2.1920   13.8954 H   0  0  0  0  0  0  0  0  0  0  0  0
  -12.5848    1.6420   13.5086 H   0  0  0  0  0  0  0  0  0  0  0  0
  -10.9254    2.3979   11.5652 H   0  0  0  0  0  0  0  0  0  0  0  0
   -8.9843    3.7497   11.1244 H   0  0  0  0  0  0  0  0  0  0  0  0
   -8.8373    6.1194   11.7802 H   0  0  0  0  0  0  0  0  0  0  0  0
  -13.9253    5.9369   13.4961 H   0  0  0  0  0  0  0  0  0  0  0  0
  -15.2704    4.0481   12.5319 H   0  0  0  0  0  0  0  0  0  0  0  0
  -14.3819    4.6651   11.1250 H   0  0  0  0  0  0  0  0  0  0  0  0
  -16.1479    3.0224   10.4807 H   0  0  0  0  0  0  0  0  0  0  0  0
  -14.5516    2.4752    9.9912 H   0  0  0  0  0  0  0  0  0  0  0  0
  -14.8849   -0.3295    9.7258 H   0  0  0  0  0  0  0  0  0  0  0  0
  -13.3681   -1.2634    8.0291 H   0  0  0  0  0  0  0  0  0  0  0  0
  1  2  1  0
  2  3  2  0
  2  4  2  0
  4  5  1  0
  5  6  2  0
  6  7  1  0
  7  8  2  0
  8  9  1  0
  9 10  2  0
 10 11  1  0
 11 12  1  0
 12 13  2  0
 13 14  1  0
 14 15  2  0
 15 16  1  0
 16 17  2  0
 17 18  1  0
 18 19  2  0
 19 20  1  0
 10 21  1  0
 21 22  1  0
 22 23  2  0
  2 24  1  0
 24 25  2  0
 25 26  1  0
 26 27  2  0
 27 28  1  0
 28 29  1  0
 29 30  1  0
 30 31  1  0
 31 32  2  0
 32 33  1  0
 33 34  2  0
 34 35  1  0
 35 36  2  0
 36 37  1  0
 37 38  2  0
 38 39  1  0
 30 40  1  0
 40 41  1  0
 41 42  1  0
 27 43  1  0
 43 44  2  0
 23  5  1  0
 44 24  1  0
 22  8  1  0
 42 28  1  0
 20 12  1  0
 39 31  1  0
 20 16  1  0
 39 35  1  0
  1 45  1  0
  1 46  1  0
  1 47  1  0
  6 48  1  0
  7 49  1  0
 13 50  1  0
 14 51  1  0
 15 52  1  0
 19 53  1  0
 21 54  1  0
 23 55  1  0
 25 56  1  0
 26 57  1  0
 28 58  1  0
 29 59  1  0
 29 60  1  0
 32 61  1  0
 33 62  1  0
 34 63  1  0
 38 64  1  0
 40 65  1  0
 40 66  1  0
 41 67  1  0
 41 68  1  0
 43 69  1  0
 44 70  1  0
M  END
>  <Energy>  (628) 
248.20411933305405

>  <compound_id>  (628) 
2741

>  <target_id>  (628) 
1

>  <reference_id>  (628) 
100

>  <inspiration_ids>  (628) 
[181, 100]

>  <energy_score>  (628) 
-24.62752008455061

>  <distance_score>  (628) 
2.4035795829667297

>  <path>  (628) 
/opt/xchem-fragalysis-2/maxwin/BulkDock/SCRATCH/505736/C2741-P100/C2741-P100.minimised.mol

>  <scratch_subdir>  (628) 
/opt/xchem-fragalysis-2/maxwin/BulkDock/SCRATCH/505736/C2741-P100

>  <fragmenstein_runtime>  (628) 
7.318845272064209

>  <fragmenstein_outcome>  (628) 
too moved

>  <fragmenstein_mode>  (628) 
expansion

>  <fragmenstein_error>  (628) 


$$$$
C2742-P181
     RDKit          3D

 66 72  0  0  0  0  0  0  0  0999 V2000
  -16.3939    2.7835   14.2395 O   0  0  0  0  0  0  0  0  0  0  0  0
  -15.7153    1.6305   13.6940 S   0  0  0  0  0  0  0  0  0  0  0  0
  -15.4419    0.5240   14.5710 O   0  0  0  0  0  0  0  0  0  0  0  0
  -14.3243    2.1653   12.9901 N   0  0  0  0  0  0  0  0  0  0  0  0
  -13.4235    1.4330   12.1396 C   0  0  0  0  0  0  0  0  0  0  0  0
  -13.7380    0.3071   11.3651 C   0  0  0  0  0  0  0  0  0  0  0  0
  -12.7975   -0.2648   10.4571 C   0  0  0  0  0  0  0  0  0  0  0  0
  -11.5372    0.2758   10.3169 C   0  0  0  0  0  0  0  0  0  0  0  0
  -11.2954    1.4588   10.9988 C   0  0  0  0  0  0  0  0  0  0  0  0
  -12.1899    2.0420   11.8988 C   0  0  0  0  0  0  0  0  0  0  0  0
  -10.0520    1.9802   10.7423 O   0  0  0  0  0  0  0  0  0  0  0  0
   -9.4866    1.0969    9.7486 C   0  0  0  0  0  0  0  0  0  0  0  0
  -10.2554   -0.2255    9.7151 C   0  0  0  0  0  0  0  0  0  0  0  0
   -9.9837   -0.9148    8.3663 C   0  0  0  0  0  0  0  0  0  0  0  0
   -8.7378   -1.7148    8.4309 O   0  0  0  0  0  0  0  0  0  0  0  0
   -7.7449   -1.2996    7.5601 C   0  0  0  0  0  0  0  0  0  0  0  0
   -6.6967   -0.4875    8.0205 C   0  0  0  0  0  0  0  0  0  0  0  0
   -6.2857    0.6055    7.2524 C   0  0  0  0  0  0  0  0  0  0  0  0
   -7.1872    0.8897    6.2320 C   0  0  0  0  0  0  0  0  0  0  0  0
   -7.7027    2.1017    5.8460 N   0  0  0  0  0  0  0  0  0  0  0  0
   -8.8213    1.7571    5.2487 C   0  0  0  0  0  0  0  0  0  0  0  0
  -10.2880    2.6486    5.1384 S   0  0  0  0  0  0  0  0  0  0  0  0
  -11.3966    1.6447    6.0546 C   0  0  0  0  0  0  0  0  0  0  0  0
  -11.9067    0.4917    5.5602 C   0  0  0  0  0  0  0  0  0  0  0  0
  -12.9569   -0.2196    6.2806 C   0  0  0  0  0  0  0  0  0  0  0  0
  -13.5386    0.3175    7.3666 C   0  0  0  0  0  0  0  0  0  0  0  0
  -13.0619    1.5580    7.8686 C   0  0  0  0  0  0  0  0  0  0  0  0
  -13.4670    2.3282    8.8547 N   0  0  0  0  0  0  0  0  0  0  0  0
  -12.5853    3.3788    8.9588 N   0  0  0  0  0  0  0  0  0  0  0  0
  -11.6912    3.2478    8.0054 C   0  0  0  0  0  0  0  0  0  0  0  0
  -11.9643    2.1408    7.2441 N   0  0  0  0  0  0  0  0  0  0  0  0
   -8.7422    0.4807    4.7732 N   0  0  0  0  0  0  0  0  0  0  0  0
   -7.9347   -0.1483    5.6794 C   0  0  0  0  0  0  0  0  0  0  0  0
   -8.0443   -1.4130    6.2168 C   0  0  0  0  0  0  0  0  0  0  0  0
  -16.6150    1.0815   12.3959 N   0  0  0  0  0  0  0  0  0  0  0  0
  -17.8011    0.2557   12.7589 C   0  0  0  0  0  0  0  0  0  0  0  0
  -18.7299    0.0420   11.5424 C   0  0  0  0  0  0  0  0  0  0  0  0
  -18.0065    0.0307   10.2573 N   0  0  0  0  0  0  0  0  0  0  0  0
  -17.3606    1.3515   10.0496 C   0  0  0  0  0  0  0  0  0  0  0  0
  -16.9385    2.0849   11.3429 C   0  0  0  0  0  0  0  0  0  0  0  0
  -13.8413    2.8166   13.6177 H   0  0  0  0  0  0  0  0  0  0  0  0
  -14.7144   -0.1598   11.4301 H   0  0  0  0  0  0  0  0  0  0  0  0
  -13.0873   -1.1125    9.8471 H   0  0  0  0  0  0  0  0  0  0  0  0
  -11.9120    2.9726   12.3824 H   0  0  0  0  0  0  0  0  0  0  0  0
   -9.4998    1.6301    8.7924 H   0  0  0  0  0  0  0  0  0  0  0  0
   -8.4447    0.8852    9.9877 H   0  0  0  0  0  0  0  0  0  0  0  0
   -9.8438   -0.8943   10.4714 H   0  0  0  0  0  0  0  0  0  0  0  0
  -10.7910   -1.5903    8.0819 H   0  0  0  0  0  0  0  0  0  0  0  0
   -9.9319   -0.1698    7.5722 H   0  0  0  0  0  0  0  0  0  0  0  0
   -6.3697   -0.5527    9.0505 H   0  0  0  0  0  0  0  0  0  0  0  0
   -5.6314    1.3708    7.6405 H   0  0  0  0  0  0  0  0  0  0  0  0
  -11.6396    0.0898    4.5896 H   0  0  0  0  0  0  0  0  0  0  0  0
  -13.3119   -1.1682    5.8789 H   0  0  0  0  0  0  0  0  0  0  0  0
  -14.3605   -0.1796    7.8720 H   0  0  0  0  0  0  0  0  0  0  0  0
  -10.8601    3.9136    7.8236 H   0  0  0  0  0  0  0  0  0  0  0  0
   -9.4659    0.0334    4.2367 H   0  0  0  0  0  0  0  0  0  0  0  0
   -8.8030   -2.1082    5.8749 H   0  0  0  0  0  0  0  0  0  0  0  0
  -18.3692    0.7251   13.5696 H   0  0  0  0  0  0  0  0  0  0  0  0
  -17.4366   -0.7181   13.1041 H   0  0  0  0  0  0  0  0  0  0  0  0
  -19.2693   -0.9040   11.6635 H   0  0  0  0  0  0  0  0  0  0  0  0
  -19.4971    0.8265   11.5155 H   0  0  0  0  0  0  0  0  0  0  0  0
  -17.2298   -0.6273   10.3710 H   0  0  0  0  0  0  0  0  0  0  0  0
  -18.0343    1.9966    9.4741 H   0  0  0  0  0  0  0  0  0  0  0  0
  -16.4768    1.1908    9.4204 H   0  0  0  0  0  0  0  0  0  0  0  0
  -17.7641    2.7149   11.6936 H   0  0  0  0  0  0  0  0  0  0  0  0
  -16.0854    2.7320   11.1201 H   0  0  0  0  0  0  0  0  0  0  0  0
  1  2  2  0
  2  3  2  0
  2  4  1  0
  4  5  1  0
  5  6  2  0
  6  7  1  0
  7  8  2  0
  8  9  1  0
  9 10  2  0
  9 11  1  0
 11 12  1  0
 12 13  1  0
 13 14  1  0
 14 15  1  0
 15 16  1  0
 16 17  2  0
 17 18  1  0
 18 19  2  0
 19 20  1  0
 20 21  2  0
 21 22  1  0
 22 23  1  0
 23 24  2  0
 24 25  1  0
 25 26  2  0
 26 27  1  0
 27 28  2  0
 28 29  1  0
 29 30  2  0
 30 31  1  0
 21 32  1  0
 32 33  1  0
 33 34  2  0
  2 35  1  0
 35 36  1  0
 36 37  1  0
 37 38  1  0
 38 39  1  0
 39 40  1  0
 10  5  1  0
 34 16  1  0
 40 35  1  0
 13  8  1  0
 33 19  1  0
 31 23  1  0
 31 27  1  0
  4 41  1  0
  6 42  1  0
  7 43  1  0
 10 44  1  0
 12 45  1  0
 12 46  1  0
 13 47  1  0
 14 48  1  0
 14 49  1  0
 17 50  1  0
 18 51  1  0
 24 52  1  0
 25 53  1  0
 26 54  1  0
 30 55  1  0
 32 56  1  0
 34 57  1  0
 36 58  1  0
 36 59  1  0
 37 60  1  0
 37 61  1  0
 38 62  1  0
 39 63  1  0
 39 64  1  0
 40 65  1  0
 40 66  1  0
M  END
>  <Energy>  (629) 
41.461605792966473

>  <compound_id>  (629) 
2742

>  <target_id>  (629) 
1

>  <reference_id>  (629) 
181

>  <inspiration_ids>  (629) 
[181, 126]

>  <energy_score>  (629) 
-28.452535705458672

>  <distance_score>  (629) 
2.130792407398577

>  <path>  (629) 
/opt/xchem-fragalysis-2/maxwin/BulkDock/SCRATCH/505736/C2742-P181/C2742-P181.minimised.mol

>  <scratch_subdir>  (629) 
/opt/xchem-fragalysis-2/maxwin/BulkDock/SCRATCH/505736/C2742-P181

>  <fragmenstein_runtime>  (629) 
20.352830171585083

>  <fragmenstein_outcome>  (629) 
too moved

>  <fragmenstein_mode>  (629) 
expansion

>  <fragmenstein_error>  (629) 


$$$$
C2742-P126
     RDKit          3D

 66 72  0  0  0  0  0  0  0  0999 V2000
  -16.2909    2.8803   14.3979 O   0  0  0  0  0  0  0  0  0  0  0  0
  -15.9280    1.5193   14.0717 S   0  0  0  0  0  0  0  0  0  0  0  0
  -15.0474    0.7531   14.9095 O   0  0  0  0  0  0  0  0  0  0  0  0
  -15.4747    1.5284   12.4713 N   0  0  0  0  0  0  0  0  0  0  0  0
  -14.2258    1.0085   12.0048 C   0  0  0  0  0  0  0  0  0  0  0  0
  -14.3006   -0.0273   11.0612 C   0  0  0  0  0  0  0  0  0  0  0  0
  -13.1648   -0.4600   10.3542 C   0  0  0  0  0  0  0  0  0  0  0  0
  -11.9535    0.1473   10.5784 C   0  0  0  0  0  0  0  0  0  0  0  0
  -11.9168    1.2356   11.4515 C   0  0  0  0  0  0  0  0  0  0  0  0
  -13.0119    1.6661   12.2040 C   0  0  0  0  0  0  0  0  0  0  0  0
  -10.7017    1.8790   11.4223 O   0  0  0  0  0  0  0  0  0  0  0  0
   -9.9950    1.2362   10.3246 C   0  0  0  0  0  0  0  0  0  0  0  0
  -10.5709   -0.1681   10.0982 C   0  0  0  0  0  0  0  0  0  0  0  0
  -10.1614   -0.7171    8.7231 C   0  0  0  0  0  0  0  0  0  0  0  0
   -8.9561   -1.5493    8.8464 O   0  0  0  0  0  0  0  0  0  0  0  0
   -7.9206   -1.1519    8.0245 C   0  0  0  0  0  0  0  0  0  0  0  0
   -6.9817   -0.2402    8.5203 C   0  0  0  0  0  0  0  0  0  0  0  0
   -6.5059    0.7752    7.6924 C   0  0  0  0  0  0  0  0  0  0  0  0
   -7.2210    0.8852    6.5053 C   0  0  0  0  0  0  0  0  0  0  0  0
   -7.6525    2.0301    5.8910 N   0  0  0  0  0  0  0  0  0  0  0  0
   -8.6855    1.6003    5.2048 C   0  0  0  0  0  0  0  0  0  0  0  0
  -10.1549    2.4437    4.8991 S   0  0  0  0  0  0  0  0  0  0  0  0
  -11.2735    1.5248    5.8835 C   0  0  0  0  0  0  0  0  0  0  0  0
  -11.8064    0.3599    5.4480 C   0  0  0  0  0  0  0  0  0  0  0  0
  -12.8743   -0.2859    6.1986 C   0  0  0  0  0  0  0  0  0  0  0  0
  -13.4180    0.3044    7.2761 C   0  0  0  0  0  0  0  0  0  0  0  0
  -12.8658    1.5204    7.7610 C   0  0  0  0  0  0  0  0  0  0  0  0
  -13.1734    2.2857    8.7847 N   0  0  0  0  0  0  0  0  0  0  0  0
  -12.2693    3.3187    8.8270 N   0  0  0  0  0  0  0  0  0  0  0  0
  -11.4708    3.1945    7.7904 C   0  0  0  0  0  0  0  0  0  0  0  0
  -11.7929    2.0732    7.0704 N   0  0  0  0  0  0  0  0  0  0  0  0
   -8.5630    0.2711    4.9122 N   0  0  0  0  0  0  0  0  0  0  0  0
   -7.8878   -0.2262    5.9950 C   0  0  0  0  0  0  0  0  0  0  0  0
   -8.0855   -1.4094    6.6753 C   0  0  0  0  0  0  0  0  0  0  0  0
  -17.3970    0.7027   13.9581 N   0  0  0  0  0  0  0  0  0  0  0  0
  -17.4042   -0.7770   13.9064 C   0  0  0  0  0  0  0  0  0  0  0  0
  -18.8595   -1.2743   13.7905 C   0  0  0  0  0  0  0  0  0  0  0  0
  -19.5072   -0.9098   12.5170 N   0  0  0  0  0  0  0  0  0  0  0  0
  -18.9770    0.3753   12.0193 C   0  0  0  0  0  0  0  0  0  0  0  0
  -18.4503    1.3315   13.1069 C   0  0  0  0  0  0  0  0  0  0  0  0
  -15.6022    2.4815   12.1208 H   0  0  0  0  0  0  0  0  0  0  0  0
  -15.2596   -0.4881   10.8384 H   0  0  0  0  0  0  0  0  0  0  0  0
  -13.2535   -1.2431    9.6097 H   0  0  0  0  0  0  0  0  0  0  0  0
  -12.9236    2.5368   12.8446 H   0  0  0  0  0  0  0  0  0  0  0  0
  -10.0823    1.8806    9.4505 H   0  0  0  0  0  0  0  0  0  0  0  0
   -8.9306    1.1831   10.5455 H   0  0  0  0  0  0  0  0  0  0  0  0
  -10.1850   -0.8843   10.8278 H   0  0  0  0  0  0  0  0  0  0  0  0
  -10.9445   -1.3551    8.3079 H   0  0  0  0  0  0  0  0  0  0  0  0
  -10.0031    0.1000    8.0155 H   0  0  0  0  0  0  0  0  0  0  0  0
   -6.8355   -0.1733    9.5925 H   0  0  0  0  0  0  0  0  0  0  0  0
   -5.9927    1.6354    8.0877 H   0  0  0  0  0  0  0  0  0  0  0  0
  -11.5403   -0.0957    4.4994 H   0  0  0  0  0  0  0  0  0  0  0  0
  -13.2680   -1.2273    5.8202 H   0  0  0  0  0  0  0  0  0  0  0  0
  -14.2646   -0.1351    7.7908 H   0  0  0  0  0  0  0  0  0  0  0  0
  -10.6604    3.8613    7.5326 H   0  0  0  0  0  0  0  0  0  0  0  0
   -9.2321   -0.2522    4.3723 H   0  0  0  0  0  0  0  0  0  0  0  0
   -8.7995   -2.1510    6.3304 H   0  0  0  0  0  0  0  0  0  0  0  0
  -16.7962   -1.1321   13.0686 H   0  0  0  0  0  0  0  0  0  0  0  0
  -16.9999   -1.1826   14.8317 H   0  0  0  0  0  0  0  0  0  0  0  0
  -19.4588   -0.8493   14.6050 H   0  0  0  0  0  0  0  0  0  0  0  0
  -18.9070   -2.3591   13.9229 H   0  0  0  0  0  0  0  0  0  0  0  0
  -19.2805   -1.6215   11.8243 H   0  0  0  0  0  0  0  0  0  0  0  0
  -19.7631    0.8739   11.4423 H   0  0  0  0  0  0  0  0  0  0  0  0
  -18.1592    0.1616   11.3184 H   0  0  0  0  0  0  0  0  0  0  0  0
  -18.0543    2.2143   12.6025 H   0  0  0  0  0  0  0  0  0  0  0  0
  -19.2676    1.6566   13.7606 H   0  0  0  0  0  0  0  0  0  0  0  0
  1  2  2  0
  2  3  2  0
  2  4  1  0
  4  5  1  0
  5  6  2  0
  6  7  1  0
  7  8  2  0
  8  9  1  0
  9 10  2  0
  9 11  1  0
 11 12  1  0
 12 13  1  0
 13 14  1  0
 14 15  1  0
 15 16  1  0
 16 17  2  0
 17 18  1  0
 18 19  2  0
 19 20  1  0
 20 21  2  0
 21 22  1  0
 22 23  1  0
 23 24  2  0
 24 25  1  0
 25 26  2  0
 26 27  1  0
 27 28  2  0
 28 29  1  0
 29 30  2  0
 30 31  1  0
 21 32  1  0
 32 33  1  0
 33 34  2  0
  2 35  1  0
 35 36  1  0
 36 37  1  0
 37 38  1  0
 38 39  1  0
 39 40  1  0
 10  5  1  0
 34 16  1  0
 40 35  1  0
 13  8  1  0
 33 19  1  0
 31 23  1  0
 31 27  1  0
  4 41  1  0
  6 42  1  0
  7 43  1  0
 10 44  1  0
 12 45  1  0
 12 46  1  0
 13 47  1  0
 14 48  1  0
 14 49  1  0
 17 50  1  0
 18 51  1  0
 24 52  1  0
 25 53  1  0
 26 54  1  0
 30 55  1  0
 32 56  1  0
 34 57  1  0
 36 58  1  0
 36 59  1  0
 37 60  1  0
 37 61  1  0
 38 62  1  0
 39 63  1  0
 39 64  1  0
 40 65  1  0
 40 66  1  0
M  END
>  <Energy>  (630) 
38.04996212633548

>  <compound_id>  (630) 
2742

>  <target_id>  (630) 
1

>  <reference_id>  (630) 
126

>  <inspiration_ids>  (630) 
[181, 126]

>  <energy_score>  (630) 
-31.864179372095975

>  <distance_score>  (630) 
2.0267443303965154

>  <path>  (630) 
/opt/xchem-fragalysis-2/maxwin/BulkDock/SCRATCH/505736/C2742-P126/C2742-P126.minimised.mol

>  <scratch_subdir>  (630) 
/opt/xchem-fragalysis-2/maxwin/BulkDock/SCRATCH/505736/C2742-P126

>  <fragmenstein_runtime>  (630) 
15.675464153289795

>  <fragmenstein_outcome>  (630) 
too moved

>  <fragmenstein_mode>  (630) 
expansion

>  <fragmenstein_error>  (630) 


$$$$
C2730-P181
     RDKit          3D

 62 69  0  0  0  0  0  0  0  0999 V2000
  -13.3238   -1.4293    7.1758 C   0  0  0  0  0  0  0  0  0  0  0  0
  -12.7290   -1.0181    5.9196 C   0  0  0  0  0  0  0  0  0  0  0  0
  -12.2862    0.2455    5.7668 C   0  0  0  0  0  0  0  0  0  0  0  0
  -11.5372    0.7389    4.2754 S   0  0  0  0  0  0  0  0  0  0  0  0
   -9.9561    0.0760    4.5983 C   0  0  0  0  0  0  0  0  0  0  0  0
   -9.7264   -1.0021    5.3301 N   0  0  0  0  0  0  0  0  0  0  0  0
   -8.4774   -0.8092    5.8184 C   0  0  0  0  0  0  0  0  0  0  0  0
   -7.6210   -1.5061    7.2371 C   0  0  0  0  0  0  0  0  0  0  0  0
   -6.0471   -0.8348    7.7544 C   0  0  0  0  0  0  0  0  0  0  0  0
   -5.3182    0.5100    6.8069 C   0  0  0  0  0  0  0  0  0  0  0  0
   -4.0395    0.1218    6.4196 O   0  0  0  0  0  0  0  0  0  0  0  0
   -4.5623   -0.9365    5.6376 C   0  0  0  0  0  0  0  0  0  0  0  0
   -6.2188   -0.9023    5.5671 C   0  0  0  0  0  0  0  0  0  0  0  0
   -7.2338    0.3331    6.7860 O   0  0  0  0  0  0  0  0  0  0  0  0
   -7.7908    1.5012    7.3899 C   0  0  0  0  0  0  0  0  0  0  0  0
   -7.5077    2.8518    7.1136 C   0  0  0  0  0  0  0  0  0  0  0  0
   -8.1892    3.9095    7.7502 C   0  0  0  0  0  0  0  0  0  0  0  0
   -9.1310    3.6092    8.7389 C   0  0  0  0  0  0  0  0  0  0  0  0
   -9.7882    4.4426    9.6150 N   0  0  0  0  0  0  0  0  0  0  0  0
  -10.3782    3.6265   10.4582 C   0  0  0  0  0  0  0  0  0  0  0  0
  -10.9603    4.0464   12.0334 S   0  0  0  0  0  0  0  0  0  0  0  0
  -12.5237    3.3077   11.9660 C   0  0  0  0  0  0  0  0  0  0  0  0
  -12.7917    2.1696   12.6421 C   0  0  0  0  0  0  0  0  0  0  0  0
  -14.1354    1.6130   12.6245 C   0  0  0  0  0  0  0  0  0  0  0  0
  -15.1400    2.2415   11.9887 C   0  0  0  0  0  0  0  0  0  0  0  0
  -14.8821    3.4632   11.3118 C   0  0  0  0  0  0  0  0  0  0  0  0
  -15.6690    4.3062   10.6805 N   0  0  0  0  0  0  0  0  0  0  0  0
  -14.8882    5.3385   10.2114 N   0  0  0  0  0  0  0  0  0  0  0  0
  -13.6460    5.0952   10.5657 C   0  0  0  0  0  0  0  0  0  0  0  0
  -13.5787    3.9397   11.2974 N   0  0  0  0  0  0  0  0  0  0  0  0
  -10.2832    2.3227   10.0614 N   0  0  0  0  0  0  0  0  0  0  0  0
   -9.4075    2.2746    9.0071 C   0  0  0  0  0  0  0  0  0  0  0  0
   -8.7869    1.2093    8.3483 C   0  0  0  0  0  0  0  0  0  0  0  0
   -6.1806    1.1968    5.3581 C   0  0  0  0  0  0  0  0  0  0  0  0
   -7.7974    0.5288    4.9308 C   0  0  0  0  0  0  0  0  0  0  0  0
   -8.8759    0.8160    4.1488 N   0  0  0  0  0  0  0  0  0  0  0  0
  -12.4570    1.1322    6.8423 N   0  0  0  0  0  0  0  0  0  0  0  0
  -12.1888    2.4659    7.0006 C   0  0  0  0  0  0  0  0  0  0  0  0
  -12.5650    2.8717    8.1943 N   0  0  0  0  0  0  0  0  0  0  0  0
  -13.0599    1.7876    8.8755 N   0  0  0  0  0  0  0  0  0  0  0  0
  -13.0202    0.7599    8.0587 C   0  0  0  0  0  0  0  0  0  0  0  0
  -13.4522   -0.5778    8.2070 C   0  0  0  0  0  0  0  0  0  0  0  0
  -13.6691   -2.4537    7.2437 H   0  0  0  0  0  0  0  0  0  0  0  0
  -12.6430   -1.7661    5.1380 H   0  0  0  0  0  0  0  0  0  0  0  0
   -8.1175   -2.3141    7.7638 H   0  0  0  0  0  0  0  0  0  0  0  0
   -5.4546   -1.3364    8.5070 H   0  0  0  0  0  0  0  0  0  0  0  0
   -4.2293   -1.8998    6.0490 H   0  0  0  0  0  0  0  0  0  0  0  0
   -4.1607   -0.8746    4.6177 H   0  0  0  0  0  0  0  0  0  0  0  0
   -6.4329   -0.7973    4.4756 H   0  0  0  0  0  0  0  0  0  0  0  0
   -6.4996   -1.9730    5.6888 H   0  0  0  0  0  0  0  0  0  0  0  0
   -6.7343    3.1626    6.4240 H   0  0  0  0  0  0  0  0  0  0  0  0
   -7.9291    4.9429    7.5506 H   0  0  0  0  0  0  0  0  0  0  0  0
  -12.0548    1.6611   13.2510 H   0  0  0  0  0  0  0  0  0  0  0  0
  -14.3101    0.6861   13.1601 H   0  0  0  0  0  0  0  0  0  0  0  0
  -16.1486    1.8464   11.9778 H   0  0  0  0  0  0  0  0  0  0  0  0
  -12.7873    5.7070   10.3303 H   0  0  0  0  0  0  0  0  0  0  0  0
  -10.6735    1.5313   10.5459 H   0  0  0  0  0  0  0  0  0  0  0  0
   -9.0406    0.1897    8.6119 H   0  0  0  0  0  0  0  0  0  0  0  0
   -5.7347    1.9056    4.6705 H   0  0  0  0  0  0  0  0  0  0  0  0
   -8.9753    1.6447    3.5855 H   0  0  0  0  0  0  0  0  0  0  0  0
  -11.7386    3.0835    6.2386 H   0  0  0  0  0  0  0  0  0  0  0  0
  -13.9030   -0.8737    9.1443 H   0  0  0  0  0  0  0  0  0  0  0  0
  1  2  1  0
  2  3  2  0
  3  4  1  0
  4  5  1  0
  5  6  2  0
  6  7  1  0
  7  8  2  0
  8  9  1  0
  9 10  2  0
 10 11  1  0
 11 12  1  0
 12 13  1  0
 13 14  1  0
 14 15  1  0
 15 16  2  0
 16 17  1  0
 17 18  2  0
 18 19  1  0
 19 20  2  0
 20 21  1  0
 21 22  1  0
 22 23  2  0
 23 24  1  0
 24 25  2  0
 25 26  1  0
 26 27  2  0
 27 28  1  0
 28 29  2  0
 29 30  1  0
 20 31  1  0
 31 32  1  0
 32 33  2  0
 10 34  1  0
 34 35  2  0
 35 36  1  0
  3 37  1  0
 37 38  1  0
 38 39  2  0
 39 40  1  0
 40 41  2  0
 41 42  1  0
 42  1  2  0
 36  5  1  0
 41 37  1  0
 35  7  1  0
 33 15  1  0
 32 18  1  0
 30 22  1  0
 30 26  1  0
  1 43  1  0
  2 44  1  0
  8 45  1  0
  9 46  1  0
 12 47  1  0
 12 48  1  0
 13 49  1  0
 13 50  1  0
 16 51  1  0
 17 52  1  0
 23 53  1  0
 24 54  1  0
 25 55  1  0
 29 56  1  0
 31 57  1  0
 33 58  1  0
 34 59  1  0
 36 60  1  0
 38 61  1  0
 42 62  1  0
M  END
>  <Energy>  (631) 
956.36865846404726

>  <compound_id>  (631) 
2730

>  <target_id>  (631) 
1

>  <reference_id>  (631) 
181

>  <inspiration_ids>  (631) 
[181, 139]

>  <energy_score>  (631) 
812.6944767652094

>  <distance_score>  (631) 
2.5823923152541863

>  <path>  (631) 
/opt/xchem-fragalysis-2/maxwin/BulkDock/SCRATCH/505736/C2730-P181/C2730-P181.minimised.mol

>  <scratch_subdir>  (631) 
/opt/xchem-fragalysis-2/maxwin/BulkDock/SCRATCH/505736/C2730-P181

>  <fragmenstein_runtime>  (631) 
10.532127857208252

>  <fragmenstein_outcome>  (631) 
too moved

>  <fragmenstein_mode>  (631) 
expansion

>  <fragmenstein_error>  (631) 


$$$$
C2730-P139
     RDKit          3D

 62 69  0  0  0  0  0  0  0  0999 V2000
  -13.2187   -1.2819    7.0974 C   0  0  0  0  0  0  0  0  0  0  0  0
  -12.1549   -0.7391    6.2752 C   0  0  0  0  0  0  0  0  0  0  0  0
  -11.8605    0.5764    6.3358 C   0  0  0  0  0  0  0  0  0  0  0  0
  -10.6819    1.3068    5.2999 S   0  0  0  0  0  0  0  0  0  0  0  0
   -9.3177    0.2623    5.4812 C   0  0  0  0  0  0  0  0  0  0  0  0
   -9.1364   -0.8066    6.2264 N   0  0  0  0  0  0  0  0  0  0  0  0
   -7.7820   -1.0425    6.1818 C   0  0  0  0  0  0  0  0  0  0  0  0
   -6.9931   -1.9211    6.9415 C   0  0  0  0  0  0  0  0  0  0  0  0
   -5.6159   -1.6778    6.9761 C   0  0  0  0  0  0  0  0  0  0  0  0
   -5.0785   -0.6610    6.1916 C   0  0  0  0  0  0  0  0  0  0  0  0
   -3.9061   -0.0670    6.5715 O   0  0  0  0  0  0  0  0  0  0  0  0
   -4.2196    0.9393    7.5671 C   0  0  0  0  0  0  0  0  0  0  0  0
   -4.7461    2.2996    6.9804 C   0  0  0  0  0  0  0  0  0  0  0  0
   -5.5555    3.2192    7.7000 O   0  0  0  0  0  0  0  0  0  0  0  0
   -6.9023    2.9920    7.6984 C   0  0  0  0  0  0  0  0  0  0  0  0
   -7.7205    4.1200    7.7964 C   0  0  0  0  0  0  0  0  0  0  0  0
   -9.0516    3.9989    8.2153 C   0  0  0  0  0  0  0  0  0  0  0  0
   -9.5004    2.7265    8.5916 C   0  0  0  0  0  0  0  0  0  0  0  0
  -10.6356    2.3481    9.2422 N   0  0  0  0  0  0  0  0  0  0  0  0
  -10.4918    1.0738    9.5035 C   0  0  0  0  0  0  0  0  0  0  0  0
  -11.4609    0.0593   10.4799 S   0  0  0  0  0  0  0  0  0  0  0  0
  -12.4308    1.1867   11.3804 C   0  0  0  0  0  0  0  0  0  0  0  0
  -13.6898    0.7920   11.6791 C   0  0  0  0  0  0  0  0  0  0  0  0
  -14.5655    1.6472   12.4549 C   0  0  0  0  0  0  0  0  0  0  0  0
  -14.1561    2.8543   12.8783 C   0  0  0  0  0  0  0  0  0  0  0  0
  -12.8438    3.2975   12.5750 C   0  0  0  0  0  0  0  0  0  0  0  0
  -12.2153    4.4179   12.8544 N   0  0  0  0  0  0  0  0  0  0  0  0
  -10.9178    4.2931   12.4496 N   0  0  0  0  0  0  0  0  0  0  0  0
  -10.8112    3.1233   11.8699 C   0  0  0  0  0  0  0  0  0  0  0  0
  -12.0069    2.4456   11.8648 N   0  0  0  0  0  0  0  0  0  0  0  0
   -9.3933    0.5603    8.8984 N   0  0  0  0  0  0  0  0  0  0  0  0
   -8.6941    1.6222    8.3914 C   0  0  0  0  0  0  0  0  0  0  0  0
   -7.4068    1.7121    7.8983 C   0  0  0  0  0  0  0  0  0  0  0  0
   -5.7896   -0.0359    5.1746 C   0  0  0  0  0  0  0  0  0  0  0  0
   -7.1609   -0.1491    5.3162 C   0  0  0  0  0  0  0  0  0  0  0  0
   -8.1784    0.6205    4.8248 N   0  0  0  0  0  0  0  0  0  0  0  0
  -12.6263    1.3766    7.2080 N   0  0  0  0  0  0  0  0  0  0  0  0
  -12.6420    2.7218    7.4789 C   0  0  0  0  0  0  0  0  0  0  0  0
  -13.4753    2.9874    8.4623 N   0  0  0  0  0  0  0  0  0  0  0  0
  -14.1134    1.8210    8.7932 N   0  0  0  0  0  0  0  0  0  0  0  0
  -13.6256    0.8727    8.0268 C   0  0  0  0  0  0  0  0  0  0  0  0
  -13.9329   -0.5001    7.9234 C   0  0  0  0  0  0  0  0  0  0  0  0
  -13.4400   -2.3370    6.9839 H   0  0  0  0  0  0  0  0  0  0  0  0
  -11.6556   -1.4317    5.6034 H   0  0  0  0  0  0  0  0  0  0  0  0
   -7.4618   -2.6386    7.6044 H   0  0  0  0  0  0  0  0  0  0  0  0
   -4.9836   -2.1905    7.6904 H   0  0  0  0  0  0  0  0  0  0  0  0
   -4.8527    0.4914    8.3317 H   0  0  0  0  0  0  0  0  0  0  0  0
   -3.2746    1.1477    8.0778 H   0  0  0  0  0  0  0  0  0  0  0  0
   -5.1843    2.2042    5.9904 H   0  0  0  0  0  0  0  0  0  0  0  0
   -3.8547    2.9122    6.8786 H   0  0  0  0  0  0  0  0  0  0  0  0
   -7.2955    5.1118    7.6637 H   0  0  0  0  0  0  0  0  0  0  0  0
   -9.6702    4.8724    8.3916 H   0  0  0  0  0  0  0  0  0  0  0  0
  -14.1048   -0.1476   11.3302 H   0  0  0  0  0  0  0  0  0  0  0  0
  -15.5729    1.2999   12.6582 H   0  0  0  0  0  0  0  0  0  0  0  0
  -14.8004    3.5181   13.4423 H   0  0  0  0  0  0  0  0  0  0  0  0
   -9.8946    2.7336   11.4674 H   0  0  0  0  0  0  0  0  0  0  0  0
   -9.1113   -0.4094    8.9073 H   0  0  0  0  0  0  0  0  0  0  0  0
   -6.7915    0.8351    7.9192 H   0  0  0  0  0  0  0  0  0  0  0  0
   -5.3372    0.6969    4.5191 H   0  0  0  0  0  0  0  0  0  0  0  0
   -8.0893    1.4337    4.2351 H   0  0  0  0  0  0  0  0  0  0  0  0
  -12.0101    3.4403    6.9806 H   0  0  0  0  0  0  0  0  0  0  0  0
  -14.7608   -0.8665    8.5097 H   0  0  0  0  0  0  0  0  0  0  0  0
  1  2  1  0
  2  3  2  0
  3  4  1  0
  4  5  1  0
  5  6  2  0
  6  7  1  0
  7  8  2  0
  8  9  1  0
  9 10  2  0
 10 11  1  0
 11 12  1  0
 12 13  1  0
 13 14  1  0
 14 15  1  0
 15 16  2  0
 16 17  1  0
 17 18  2  0
 18 19  1  0
 19 20  2  0
 20 21  1  0
 21 22  1  0
 22 23  2  0
 23 24  1  0
 24 25  2  0
 25 26  1  0
 26 27  2  0
 27 28  1  0
 28 29  2  0
 29 30  1  0
 20 31  1  0
 31 32  1  0
 32 33  2  0
 10 34  1  0
 34 35  2  0
 35 36  1  0
  3 37  1  0
 37 38  1  0
 38 39  2  0
 39 40  1  0
 40 41  2  0
 41 42  1  0
 42  1  2  0
 36  5  1  0
 41 37  1  0
 35  7  1  0
 33 15  1  0
 32 18  1  0
 30 22  1  0
 30 26  1  0
  1 43  1  0
  2 44  1  0
  8 45  1  0
  9 46  1  0
 12 47  1  0
 12 48  1  0
 13 49  1  0
 13 50  1  0
 16 51  1  0
 17 52  1  0
 23 53  1  0
 24 54  1  0
 25 55  1  0
 29 56  1  0
 31 57  1  0
 33 58  1  0
 34 59  1  0
 36 60  1  0
 38 61  1  0
 42 62  1  0
M  END
>  <Energy>  (632) 
114.33819719228001

>  <compound_id>  (632) 
2730

>  <target_id>  (632) 
1

>  <reference_id>  (632) 
139

>  <inspiration_ids>  (632) 
[181, 139]

>  <energy_score>  (632) 
-70.642751620453

>  <distance_score>  (632) 
1.857408061866921

>  <path>  (632) 
/opt/xchem-fragalysis-2/maxwin/BulkDock/SCRATCH/505736/C2730-P139/C2730-P139.minimised.mol

>  <scratch_subdir>  (632) 
/opt/xchem-fragalysis-2/maxwin/BulkDock/SCRATCH/505736/C2730-P139

>  <fragmenstein_runtime>  (632) 
6.662829637527466

>  <fragmenstein_outcome>  (632) 
too moved

>  <fragmenstein_mode>  (632) 
expansion

>  <fragmenstein_error>  (632) 


$$$$
C2743-P181
     RDKit          3D

 50 53  0  0  0  0  0  0  0  0999 V2000
  -12.2423    1.7900    6.8045 C   0  0  0  0  0  0  0  0  0  0  0  0
  -13.2378    0.8326    6.1925 C   0  0  0  0  0  0  0  0  0  0  0  0
  -13.7278   -0.5747    7.1500 S   0  0  0  0  0  0  0  0  0  0  0  0
  -15.1126   -0.8252    6.8106 O   0  0  0  0  0  0  0  0  0  0  0  0
  -12.6011   -1.6251    7.1646 N   0  0  0  0  0  0  0  0  0  0  0  0
  -11.2656   -1.3898    6.4862 N   0  0  0  0  0  0  0  0  0  0  0  0
  -10.1134   -1.7814    7.2796 C   0  0  0  0  0  0  0  0  0  0  0  0
  -10.0181   -0.9173    8.4206 N   0  0  0  0  0  0  0  0  0  0  0  0
   -8.8319   -0.2484    8.5057 C   0  0  0  0  0  0  0  0  0  0  0  0
   -8.4436    0.4710    9.3992 O   0  0  0  0  0  0  0  0  0  0  0  0
   -8.0267   -0.6836    7.3719 C   0  0  0  0  0  0  0  0  0  0  0  0
   -6.6706   -0.5317    7.2119 C   0  0  0  0  0  0  0  0  0  0  0  0
   -6.0859   -1.3895    6.2890 C   0  0  0  0  0  0  0  0  0  0  0  0
   -4.3411   -1.5384    6.2445 S   0  0  0  0  0  0  0  0  0  0  0  0
   -4.0431   -2.9278    6.5100 O   0  0  0  0  0  0  0  0  0  0  0  0
   -3.8859   -0.8557    5.0540 O   0  0  0  0  0  0  0  0  0  0  0  0
   -3.7519   -0.7304    7.4803 F   0  0  0  0  0  0  0  0  0  0  0  0
   -6.8320   -2.2961    5.5079 C   0  0  0  0  0  0  0  0  0  0  0  0
   -8.2060   -2.3951    5.6731 C   0  0  0  0  0  0  0  0  0  0  0  0
   -8.7836   -1.6012    6.6415 C   0  0  0  0  0  0  0  0  0  0  0  0
  -13.8881   -0.1569    8.7858 N   0  0  0  0  0  0  0  0  0  0  0  0
  -12.7250    0.0146    9.6229 C   0  0  0  0  0  0  0  0  0  0  0  0
  -12.8546    1.1103   10.6297 C   0  0  0  0  0  0  0  0  0  0  0  0
  -13.9630    1.2259   11.4922 C   0  0  0  0  0  0  0  0  0  0  0  0
  -14.0981    2.3562   12.2942 C   0  0  0  0  0  0  0  0  0  0  0  0
  -13.1157    3.3201   12.2057 C   0  0  0  0  0  0  0  0  0  0  0  0
  -11.9918    3.1699   11.4380 C   0  0  0  0  0  0  0  0  0  0  0  0
  -11.8226    2.0676   10.6538 C   0  0  0  0  0  0  0  0  0  0  0  0
  -11.1532    4.2340   11.4866 O   0  0  0  0  0  0  0  0  0  0  0  0
  -11.8509    5.0468   12.4398 C   0  0  0  0  0  0  0  0  0  0  0  0
  -13.1549    4.5423   12.7838 O   0  0  0  0  0  0  0  0  0  0  0  0
  -11.2932    1.3076    7.0438 H   0  0  0  0  0  0  0  0  0  0  0  0
  -12.0272    2.6007    6.1003 H   0  0  0  0  0  0  0  0  0  0  0  0
  -12.6420    2.2494    7.7119 H   0  0  0  0  0  0  0  0  0  0  0  0
  -14.1590    1.3891    5.9816 H   0  0  0  0  0  0  0  0  0  0  0  0
  -12.8755    0.4624    5.2275 H   0  0  0  0  0  0  0  0  0  0  0  0
  -11.2580   -1.9441    5.6208 H   0  0  0  0  0  0  0  0  0  0  0  0
  -10.1762   -2.8212    7.5962 H   0  0  0  0  0  0  0  0  0  0  0  0
  -10.4751   -1.2215    9.2680 H   0  0  0  0  0  0  0  0  0  0  0  0
   -6.1004    0.1102    7.8739 H   0  0  0  0  0  0  0  0  0  0  0  0
   -6.3256   -2.9731    4.8202 H   0  0  0  0  0  0  0  0  0  0  0  0
   -8.7763   -3.1489    5.1389 H   0  0  0  0  0  0  0  0  0  0  0  0
  -14.4395   -0.9338    9.1455 H   0  0  0  0  0  0  0  0  0  0  0  0
  -11.9000    0.3003    8.9809 H   0  0  0  0  0  0  0  0  0  0  0  0
  -12.4413   -0.9082   10.1217 H   0  0  0  0  0  0  0  0  0  0  0  0
  -14.7468    0.4733   11.4829 H   0  0  0  0  0  0  0  0  0  0  0  0
  -14.9666    2.5079   12.9226 H   0  0  0  0  0  0  0  0  0  0  0  0
  -10.9374    1.9829   10.0293 H   0  0  0  0  0  0  0  0  0  0  0  0
  -11.2435    5.1297   13.3492 H   0  0  0  0  0  0  0  0  0  0  0  0
  -11.9721    6.0507   12.0171 H   0  0  0  0  0  0  0  0  0  0  0  0
  1  2  1  0
  2  3  1  0
  3  4  2  0
  3  5  2  0
  5  6  1  0
  6  7  1  0
  7  8  1  0
  8  9  1  0
  9 10  2  0
  9 11  1  0
 11 12  2  0
 12 13  1  0
 13 14  1  0
 14 15  2  0
 14 16  2  0
 14 17  1  0
 13 18  2  0
 18 19  1  0
 19 20  2  0
  3 21  1  0
 21 22  1  0
 22 23  1  0
 23 24  2  0
 24 25  1  0
 25 26  2  0
 26 27  1  0
 27 28  2  0
 27 29  1  0
 29 30  1  0
 30 31  1  0
 20  7  1  0
 28 23  1  0
 20 11  1  0
 31 26  1  0
  1 32  1  0
  1 33  1  0
  1 34  1  0
  2 35  1  0
  2 36  1  0
  6 37  1  0
  7 38  1  0
  8 39  1  0
 12 40  1  0
 18 41  1  0
 19 42  1  0
 21 43  1  0
 22 44  1  0
 22 45  1  0
 24 46  1  0
 25 47  1  0
 28 48  1  0
 30 49  1  0
 30 50  1  0
M  END
>  <Energy>  (633) 
7.443629228949904

>  <compound_id>  (633) 
2743

>  <target_id>  (633) 
1

>  <reference_id>  (633) 
181

>  <inspiration_ids>  (633) 
[181, 143]

>  <energy_score>  (633) 
-60.641118938073134

>  <distance_score>  (633) 
1.886965277754152

>  <path>  (633) 
/opt/xchem-fragalysis-2/maxwin/BulkDock/SCRATCH/505736/C2743-P181/C2743-P181.minimised.mol

>  <scratch_subdir>  (633) 
/opt/xchem-fragalysis-2/maxwin/BulkDock/SCRATCH/505736/C2743-P181

>  <fragmenstein_runtime>  (633) 
4.837776184082031

>  <fragmenstein_outcome>  (633) 
too moved

>  <fragmenstein_mode>  (633) 
expansion

>  <fragmenstein_error>  (633) 


$$$$
C2743-P143
     RDKit          3D

 50 53  0  0  0  0  0  0  0  0999 V2000
  -14.3741    0.1556    5.1128 C   0  0  0  0  0  0  0  0  0  0  0  0
  -14.6979   -0.1362    6.5639 C   0  0  0  0  0  0  0  0  0  0  0  0
  -13.2780   -0.0972    7.5895 S   0  0  0  0  0  0  0  0  0  0  0  0
  -12.7882    1.2630    7.6278 O   0  0  0  0  0  0  0  0  0  0  0  0
  -12.4514   -1.3360    7.2472 N   0  0  0  0  0  0  0  0  0  0  0  0
  -11.0320   -1.1544    6.8982 N   0  0  0  0  0  0  0  0  0  0  0  0
  -10.1321   -0.7516    7.9759 C   0  0  0  0  0  0  0  0  0  0  0  0
  -10.0399    0.6824    8.0148 N   0  0  0  0  0  0  0  0  0  0  0  0
   -8.8161    1.1577    7.6088 C   0  0  0  0  0  0  0  0  0  0  0  0
   -8.4595    2.3041    7.4285 O   0  0  0  0  0  0  0  0  0  0  0  0
   -7.9708   -0.0152    7.3754 C   0  0  0  0  0  0  0  0  0  0  0  0
   -6.6724   -0.0910    6.9309 C   0  0  0  0  0  0  0  0  0  0  0  0
   -6.1780   -1.3778    6.7140 C   0  0  0  0  0  0  0  0  0  0  0  0
   -4.5228   -1.5770    6.1603 S   0  0  0  0  0  0  0  0  0  0  0  0
   -4.3164   -2.9917    5.9352 O   0  0  0  0  0  0  0  0  0  0  0  0
   -4.2613   -0.5980    5.1255 O   0  0  0  0  0  0  0  0  0  0  0  0
   -3.5920   -1.1951    7.3920 F   0  0  0  0  0  0  0  0  0  0  0  0
   -6.9584   -2.5353    6.9182 C   0  0  0  0  0  0  0  0  0  0  0  0
   -8.2534   -2.4250    7.3971 C   0  0  0  0  0  0  0  0  0  0  0  0
   -8.7438   -1.1496    7.6101 C   0  0  0  0  0  0  0  0  0  0  0  0
  -13.6904   -0.4570    9.1805 N   0  0  0  0  0  0  0  0  0  0  0  0
  -14.5007    0.4300    9.9862 C   0  0  0  0  0  0  0  0  0  0  0  0
  -13.6722    1.3319   10.8531 C   0  0  0  0  0  0  0  0  0  0  0  0
  -13.3328    0.9541   12.1700 C   0  0  0  0  0  0  0  0  0  0  0  0
  -12.4257    1.7037   12.9164 C   0  0  0  0  0  0  0  0  0  0  0  0
  -11.8680    2.8058   12.3112 C   0  0  0  0  0  0  0  0  0  0  0  0
  -12.2490    3.2263   11.0650 C   0  0  0  0  0  0  0  0  0  0  0  0
  -13.1658    2.5273   10.3228 C   0  0  0  0  0  0  0  0  0  0  0  0
  -11.5806    4.3310   10.6473 O   0  0  0  0  0  0  0  0  0  0  0  0
  -10.6633    4.4991   11.7371 C   0  0  0  0  0  0  0  0  0  0  0  0
  -10.8656    3.5661   12.8127 O   0  0  0  0  0  0  0  0  0  0  0  0
  -13.9311    1.1503    5.0001 H   0  0  0  0  0  0  0  0  0  0  0  0
  -13.6625   -0.5724    4.7121 H   0  0  0  0  0  0  0  0  0  0  0  0
  -15.2830    0.1161    4.5047 H   0  0  0  0  0  0  0  0  0  0  0  0
  -15.1615   -1.1216    6.6622 H   0  0  0  0  0  0  0  0  0  0  0  0
  -15.4013    0.6114    6.9431 H   0  0  0  0  0  0  0  0  0  0  0  0
  -10.7017   -2.0442    6.5248 H   0  0  0  0  0  0  0  0  0  0  0  0
  -10.4126   -1.1187    8.9665 H   0  0  0  0  0  0  0  0  0  0  0  0
  -10.8661    1.2734    8.0605 H   0  0  0  0  0  0  0  0  0  0  0  0
   -6.0940    0.8049    6.7363 H   0  0  0  0  0  0  0  0  0  0  0  0
   -6.5548   -3.5277    6.7194 H   0  0  0  0  0  0  0  0  0  0  0  0
   -8.8667   -3.3046    7.5737 H   0  0  0  0  0  0  0  0  0  0  0  0
  -14.0965   -1.3908    9.1504 H   0  0  0  0  0  0  0  0  0  0  0  0
  -15.1940    1.0181    9.3730 H   0  0  0  0  0  0  0  0  0  0  0  0
  -15.1450   -0.1769   10.6355 H   0  0  0  0  0  0  0  0  0  0  0  0
  -13.7473    0.0532   12.6025 H   0  0  0  0  0  0  0  0  0  0  0  0
  -12.1217    1.4103   13.9145 H   0  0  0  0  0  0  0  0  0  0  0  0
  -13.4184    2.8679    9.3252 H   0  0  0  0  0  0  0  0  0  0  0  0
   -9.6411    4.3872   11.3598 H   0  0  0  0  0  0  0  0  0  0  0  0
  -10.7743    5.5148   12.1341 H   0  0  0  0  0  0  0  0  0  0  0  0
  1  2  1  0
  2  3  1  0
  3  4  2  0
  3  5  2  0
  5  6  1  0
  6  7  1  0
  7  8  1  0
  8  9  1  0
  9 10  2  0
  9 11  1  0
 11 12  2  0
 12 13  1  0
 13 14  1  0
 14 15  2  0
 14 16  2  0
 14 17  1  0
 13 18  2  0
 18 19  1  0
 19 20  2  0
  3 21  1  0
 21 22  1  0
 22 23  1  0
 23 24  2  0
 24 25  1  0
 25 26  2  0
 26 27  1  0
 27 28  2  0
 27 29  1  0
 29 30  1  0
 30 31  1  0
 20  7  1  0
 28 23  1  0
 20 11  1  0
 31 26  1  0
  1 32  1  0
  1 33  1  0
  1 34  1  0
  2 35  1  0
  2 36  1  0
  6 37  1  0
  7 38  1  0
  8 39  1  0
 12 40  1  0
 18 41  1  0
 19 42  1  0
 21 43  1  0
 22 44  1  0
 22 45  1  0
 24 46  1  0
 25 47  1  0
 28 48  1  0
 30 49  1  0
 30 50  1  0
M  END
>  <Energy>  (634) 
-9.2808693838361886

>  <compound_id>  (634) 
2743

>  <target_id>  (634) 
1

>  <reference_id>  (634) 
143

>  <inspiration_ids>  (634) 
[181, 143]

>  <energy_score>  (634) 
-77.36561755085935

>  <distance_score>  (634) 
1.9209192725956106

>  <path>  (634) 
/opt/xchem-fragalysis-2/maxwin/BulkDock/SCRATCH/505736/C2743-P143/C2743-P143.minimised.mol

>  <scratch_subdir>  (634) 
/opt/xchem-fragalysis-2/maxwin/BulkDock/SCRATCH/505736/C2743-P143

>  <fragmenstein_runtime>  (634) 
5.509979724884033

>  <fragmenstein_outcome>  (634) 
too moved

>  <fragmenstein_mode>  (634) 
expansion

>  <fragmenstein_error>  (634) 


$$$$
C2744-P181
     RDKit          3D

 33 34  0  0  0  0  0  0  0  0999 V2000
   -7.0460   -1.4121    4.5264 C   0  0  0  0  0  0  0  0  0  0  0  0
   -7.0535   -0.8483    5.9494 C   0  0  0  0  0  0  0  0  0  0  0  0
   -6.7790    0.6568    5.9078 C   0  0  0  0  0  0  0  0  0  0  0  0
   -6.9072    1.3581    7.2483 C   0  0  0  0  0  0  0  0  0  0  0  0
   -8.3080    1.3245    7.8609 C   0  0  0  0  0  0  0  0  0  0  0  0
   -9.3277    2.1767    7.2588 C   0  0  0  0  0  0  0  0  0  0  0  0
  -10.6483    2.3499    7.4652 C   0  0  0  0  0  0  0  0  0  0  0  0
  -11.7298    1.7689    8.3116 C   0  0  0  0  0  0  0  0  0  0  0  0
  -12.9668    2.1651    8.2335 N   0  0  0  0  0  0  0  0  0  0  0  0
  -13.6928    1.2486    8.9609 C   0  0  0  0  0  0  0  0  0  0  0  0
  -13.0341    0.2160    9.4982 C   0  0  0  0  0  0  0  0  0  0  0  0
  -11.6505    0.6020    9.2517 C   0  0  0  0  0  0  0  0  0  0  0  0
  -10.6066    0.1322    9.8334 N   0  0  0  0  0  0  0  0  0  0  0  0
   -9.6249    1.0619    9.8542 C   0  0  0  0  0  0  0  0  0  0  0  0
   -9.7406    2.1392   10.4202 O   0  0  0  0  0  0  0  0  0  0  0  0
   -8.4717    0.7023    9.0351 C   0  0  0  0  0  0  0  0  0  0  0  0
   -5.8646   -1.7345    6.9522 S   0  0  0  0  0  0  0  0  0  0  0  0
   -6.1128   -3.1527    6.8144 O   0  0  0  0  0  0  0  0  0  0  0  0
   -4.5429   -1.1691    6.7703 O   0  0  0  0  0  0  0  0  0  0  0  0
   -6.2446   -1.3900    8.4553 F   0  0  0  0  0  0  0  0  0  0  0  0
   -7.2956   -2.4784    4.5225 H   0  0  0  0  0  0  0  0  0  0  0  0
   -7.7824   -0.8993    3.8988 H   0  0  0  0  0  0  0  0  0  0  0  0
   -6.0608   -1.3009    4.0603 H   0  0  0  0  0  0  0  0  0  0  0  0
   -8.0341   -1.0582    6.3905 H   0  0  0  0  0  0  0  0  0  0  0  0
   -7.4657    1.1279    5.1926 H   0  0  0  0  0  0  0  0  0  0  0  0
   -5.7694    0.8387    5.5171 H   0  0  0  0  0  0  0  0  0  0  0  0
   -6.1743    0.9301    7.9354 H   0  0  0  0  0  0  0  0  0  0  0  0
   -6.6078    2.4081    7.1278 H   0  0  0  0  0  0  0  0  0  0  0  0
   -8.9062    2.8527    6.5088 H   0  0  0  0  0  0  0  0  0  0  0  0
  -11.0973    3.1314    6.8459 H   0  0  0  0  0  0  0  0  0  0  0  0
  -14.7691    1.3670    9.0222 H   0  0  0  0  0  0  0  0  0  0  0  0
  -13.3968   -0.5947   10.0941 H   0  0  0  0  0  0  0  0  0  0  0  0
   -7.7000    0.1479    9.5395 H   0  0  0  0  0  0  0  0  0  0  0  0
  1  2  1  0
  2  3  1  0
  3  4  1  0
  4  5  1  0
  5  6  1  0
  6  7  2  0
  7  8  1  0
  8  9  2  0
  9 10  1  0
 10 11  2  0
 11 12  1  0
 12 13  2  0
 13 14  1  0
 14 15  2  0
 14 16  1  0
  2 17  1  0
 17 18  2  0
 17 19  2  0
 17 20  1  0
 16  5  2  0
 12  8  1  0
  1 21  1  0
  1 22  1  0
  1 23  1  0
  2 24  1  0
  3 25  1  0
  3 26  1  0
  4 27  1  0
  4 28  1  0
  6 29  1  0
  7 30  1  0
 10 31  1  0
 11 32  1  0
 16 33  1  0
M  END
>  <Energy>  (635) 
61.422816614147251

>  <compound_id>  (635) 
2744

>  <target_id>  (635) 
1

>  <reference_id>  (635) 
181

>  <inspiration_ids>  (635) 
[181, 179]

>  <energy_score>  (635) 
-93.49557792614462

>  <distance_score>  (635) 
1.9248713483550033

>  <path>  (635) 
/opt/xchem-fragalysis-2/maxwin/BulkDock/SCRATCH/505736/C2744-P181/C2744-P181.minimised.mol

>  <scratch_subdir>  (635) 
/opt/xchem-fragalysis-2/maxwin/BulkDock/SCRATCH/505736/C2744-P181

>  <fragmenstein_runtime>  (635) 
3.610060453414917

>  <fragmenstein_outcome>  (635) 
too moved

>  <fragmenstein_mode>  (635) 
expansion

>  <fragmenstein_error>  (635) 


$$$$
C2744-P179
     RDKit          3D

 33 34  0  0  0  0  0  0  0  0999 V2000
   -5.9451   -0.6242    4.4125 C   0  0  0  0  0  0  0  0  0  0  0  0
   -6.4533   -0.4949    5.8500 C   0  0  0  0  0  0  0  0  0  0  0  0
   -6.1811    0.9126    6.3768 C   0  0  0  0  0  0  0  0  0  0  0  0
   -6.7358    1.2174    7.7645 C   0  0  0  0  0  0  0  0  0  0  0  0
   -8.2498    1.2292    7.8550 C   0  0  0  0  0  0  0  0  0  0  0  0
   -8.9540    0.0213    8.2620 C   0  0  0  0  0  0  0  0  0  0  0  0
  -10.0833   -0.1632    8.9646 C   0  0  0  0  0  0  0  0  0  0  0  0
  -11.0721    0.7146    9.6187 C   0  0  0  0  0  0  0  0  0  0  0  0
  -11.8530    0.2945   10.5720 N   0  0  0  0  0  0  0  0  0  0  0  0
  -12.5485    1.3917   11.0134 C   0  0  0  0  0  0  0  0  0  0  0  0
  -12.2778    2.5546   10.4247 C   0  0  0  0  0  0  0  0  0  0  0  0
  -11.3289    2.1649    9.3818 C   0  0  0  0  0  0  0  0  0  0  0  0
  -10.9217    2.9595    8.4524 N   0  0  0  0  0  0  0  0  0  0  0  0
  -10.3242    2.3778    7.3835 C   0  0  0  0  0  0  0  0  0  0  0  0
  -10.9006    1.9413    6.3975 O   0  0  0  0  0  0  0  0  0  0  0  0
   -8.8705    2.3570    7.4890 C   0  0  0  0  0  0  0  0  0  0  0  0
   -5.6727   -1.7339    6.8692 S   0  0  0  0  0  0  0  0  0  0  0  0
   -6.0864   -3.0401    6.4068 O   0  0  0  0  0  0  0  0  0  0  0  0
   -4.2813   -1.3814    7.0603 O   0  0  0  0  0  0  0  0  0  0  0  0
   -6.3385   -1.5725    8.2995 F   0  0  0  0  0  0  0  0  0  0  0  0
   -6.1456   -1.6243    4.0135 H   0  0  0  0  0  0  0  0  0  0  0  0
   -6.4386    0.1016    3.7579 H   0  0  0  0  0  0  0  0  0  0  0  0
   -4.8638   -0.4569    4.3542 H   0  0  0  0  0  0  0  0  0  0  0  0
   -7.5242   -0.7177    5.8489 H   0  0  0  0  0  0  0  0  0  0  0  0
   -6.5843    1.6451    5.6650 H   0  0  0  0  0  0  0  0  0  0  0  0
   -5.0988    1.0872    6.4059 H   0  0  0  0  0  0  0  0  0  0  0  0
   -6.3142    0.5606    8.5256 H   0  0  0  0  0  0  0  0  0  0  0  0
   -6.3766    2.2241    8.0136 H   0  0  0  0  0  0  0  0  0  0  0  0
   -8.4773   -0.9080    7.9587 H   0  0  0  0  0  0  0  0  0  0  0  0
  -10.3452   -1.2038    9.1569 H   0  0  0  0  0  0  0  0  0  0  0  0
  -13.2555    1.2727   11.8271 H   0  0  0  0  0  0  0  0  0  0  0  0
  -12.6891    3.5302   10.5922 H   0  0  0  0  0  0  0  0  0  0  0  0
   -8.3619    3.2576    7.1734 H   0  0  0  0  0  0  0  0  0  0  0  0
  1  2  1  0
  2  3  1  0
  3  4  1  0
  4  5  1  0
  5  6  1  0
  6  7  2  0
  7  8  1  0
  8  9  2  0
  9 10  1  0
 10 11  2  0
 11 12  1  0
 12 13  2  0
 13 14  1  0
 14 15  2  0
 14 16  1  0
  2 17  1  0
 17 18  2  0
 17 19  2  0
 17 20  1  0
 16  5  2  0
 12  8  1  0
  1 21  1  0
  1 22  1  0
  1 23  1  0
  2 24  1  0
  3 25  1  0
  3 26  1  0
  4 27  1  0
  4 28  1  0
  6 29  1  0
  7 30  1  0
 10 31  1  0
 11 32  1  0
 16 33  1  0
M  END
>  <Energy>  (636) 
53.865931001763336

>  <compound_id>  (636) 
2744

>  <target_id>  (636) 
1

>  <reference_id>  (636) 
179

>  <inspiration_ids>  (636) 
[181, 179]

>  <energy_score>  (636) 
-101.05246353852789

>  <distance_score>  (636) 
2.1395139079841443

>  <path>  (636) 
/opt/xchem-fragalysis-2/maxwin/BulkDock/SCRATCH/505736/C2744-P179/C2744-P179.minimised.mol

>  <scratch_subdir>  (636) 
/opt/xchem-fragalysis-2/maxwin/BulkDock/SCRATCH/505736/C2744-P179

>  <fragmenstein_runtime>  (636) 
3.9049837589263916

>  <fragmenstein_outcome>  (636) 
too moved

>  <fragmenstein_mode>  (636) 
expansion

>  <fragmenstein_error>  (636) 


$$$$
C2745-P181
     RDKit          3D

 34 36  0  0  0  0  0  0  0  0999 V2000
   -5.7606    0.6103    2.9917 C   0  0  0  0  0  0  0  0  0  0  0  0
   -6.5184   -0.5207    3.6749 C   0  0  0  0  0  0  0  0  0  0  0  0
   -7.1740   -1.4746    2.6999 C   0  0  0  0  0  0  0  0  0  0  0  0
   -6.4125   -2.7633    2.8761 C   0  0  0  0  0  0  0  0  0  0  0  0
   -5.8997   -2.7632    4.2093 O   0  0  0  0  0  0  0  0  0  0  0  0
   -5.6243   -1.4211    4.5754 C   0  0  0  0  0  0  0  0  0  0  0  0
   -5.9417   -1.1054    6.0451 C   0  0  0  0  0  0  0  0  0  0  0  0
   -5.4162    0.1458    6.4480 C   0  0  0  0  0  0  0  0  0  0  0  0
   -6.3068    1.0146    7.0384 C   0  0  0  0  0  0  0  0  0  0  0  0
   -7.5645    0.5639    7.4423 C   0  0  0  0  0  0  0  0  0  0  0  0
   -7.9484   -0.7555    7.3885 C   0  0  0  0  0  0  0  0  0  0  0  0
   -7.1209   -1.6131    6.6619 C   0  0  0  0  0  0  0  0  0  0  0  0
   -7.8065   -3.2283    6.3380 S   0  0  0  0  0  0  0  0  0  0  0  0
   -8.2988   -3.7400    7.6005 O   0  0  0  0  0  0  0  0  0  0  0  0
   -8.6913   -3.0818    5.1928 O   0  0  0  0  0  0  0  0  0  0  0  0
   -6.6383   -4.2256    5.9455 F   0  0  0  0  0  0  0  0  0  0  0  0
   -8.4274    1.7351    7.6089 C   0  0  0  0  0  0  0  0  0  0  0  0
   -9.6365    1.7231    7.7171 O   0  0  0  0  0  0  0  0  0  0  0  0
   -7.6158    2.8379    7.4656 N   0  0  0  0  0  0  0  0  0  0  0  0
   -6.2751    2.5056    7.0567 C   0  0  0  0  0  0  0  0  0  0  0  0
   -5.3580    1.3137    3.7250 H   0  0  0  0  0  0  0  0  0  0  0  0
   -4.9277    0.2249    2.3942 H   0  0  0  0  0  0  0  0  0  0  0  0
   -6.4227    1.1715    2.3238 H   0  0  0  0  0  0  0  0  0  0  0  0
   -7.3227   -0.0386    4.2462 H   0  0  0  0  0  0  0  0  0  0  0  0
   -8.2202   -1.6264    2.9889 H   0  0  0  0  0  0  0  0  0  0  0  0
   -7.1760   -1.1350    1.6597 H   0  0  0  0  0  0  0  0  0  0  0  0
   -5.5618   -2.8127    2.1872 H   0  0  0  0  0  0  0  0  0  0  0  0
   -7.0356   -3.6475    2.7174 H   0  0  0  0  0  0  0  0  0  0  0  0
   -4.5568   -1.2487    4.3878 H   0  0  0  0  0  0  0  0  0  0  0  0
   -4.5114    0.5394    5.9927 H   0  0  0  0  0  0  0  0  0  0  0  0
   -8.9339   -1.0609    7.7349 H   0  0  0  0  0  0  0  0  0  0  0  0
   -8.0171    3.7663    7.4550 H   0  0  0  0  0  0  0  0  0  0  0  0
   -6.1194    2.9129    6.0531 H   0  0  0  0  0  0  0  0  0  0  0  0
   -5.5527    2.9320    7.7527 H   0  0  0  0  0  0  0  0  0  0  0  0
  1  2  1  0
  2  3  1  0
  3  4  1  0
  4  5  1  0
  5  6  1  0
  6  7  1  0
  7  8  2  0
  8  9  1  0
  9 10  2  0
 10 11  1  0
 11 12  2  0
 12 13  1  0
 13 14  2  0
 13 15  2  0
 13 16  1  0
 10 17  1  0
 17 18  2  0
 17 19  1  0
 19 20  1  0
  6  2  1  0
 12  7  1  0
 20  9  1  0
  1 21  1  0
  1 22  1  0
  1 23  1  0
  2 24  1  0
  3 25  1  0
  3 26  1  0
  4 27  1  0
  4 28  1  0
  6 29  1  0
  8 30  1  0
 11 31  1  0
 19 32  1  0
 20 33  1  0
 20 34  1  0
M  END
>  <Energy>  (637) 
66.07020233027643

>  <compound_id>  (637) 
2745

>  <target_id>  (637) 
1

>  <reference_id>  (637) 
181

>  <inspiration_ids>  (637) 
[181, 182]

>  <energy_score>  (637) 
-20.1452255143044

>  <distance_score>  (637) 
1.534646955431912

>  <path>  (637) 
/opt/xchem-fragalysis-2/maxwin/BulkDock/SCRATCH/505736/C2745-P181/C2745-P181.minimised.mol

>  <scratch_subdir>  (637) 
/opt/xchem-fragalysis-2/maxwin/BulkDock/SCRATCH/505736/C2745-P181

>  <fragmenstein_runtime>  (637) 
46.011733293533325

>  <fragmenstein_outcome>  (637) 
too moved

>  <fragmenstein_mode>  (637) 
expansion

>  <fragmenstein_error>  (637) 


$$$$
C2745-P182
     RDKit          3D

 34 36  0  0  0  0  0  0  0  0999 V2000
   -5.7568    0.5525    3.0583 C   0  0  0  0  0  0  0  0  0  0  0  0
   -6.5363   -0.5764    3.7207 C   0  0  0  0  0  0  0  0  0  0  0  0
   -7.1344   -1.5524    2.7300 C   0  0  0  0  0  0  0  0  0  0  0  0
   -6.4438   -2.8592    3.0292 C   0  0  0  0  0  0  0  0  0  0  0  0
   -6.0204   -2.8024    4.3903 O   0  0  0  0  0  0  0  0  0  0  0  0
   -5.6907   -1.4551    4.6864 C   0  0  0  0  0  0  0  0  0  0  0  0
   -6.0229   -1.0405    6.1243 C   0  0  0  0  0  0  0  0  0  0  0  0
   -5.4456    0.1982    6.4892 C   0  0  0  0  0  0  0  0  0  0  0  0
   -6.2907    1.1133    7.0751 C   0  0  0  0  0  0  0  0  0  0  0  0
   -7.5624    0.7226    7.4949 C   0  0  0  0  0  0  0  0  0  0  0  0
   -8.0062   -0.5768    7.4709 C   0  0  0  0  0  0  0  0  0  0  0  0
   -7.2239   -1.4780    6.7538 C   0  0  0  0  0  0  0  0  0  0  0  0
   -7.9818   -3.0619    6.4645 S   0  0  0  0  0  0  0  0  0  0  0  0
   -8.8443   -2.9249    5.3016 O   0  0  0  0  0  0  0  0  0  0  0  0
   -6.9957   -4.1011    6.6544 O   0  0  0  0  0  0  0  0  0  0  0  0
   -8.9910   -3.2752    7.6779 F   0  0  0  0  0  0  0  0  0  0  0  0
   -8.3779    1.9263    7.6427 C   0  0  0  0  0  0  0  0  0  0  0  0
   -9.5870    1.9522    7.7512 O   0  0  0  0  0  0  0  0  0  0  0  0
   -7.5234    2.9931    7.4836 N   0  0  0  0  0  0  0  0  0  0  0  0
   -6.1922    2.6007    7.0908 C   0  0  0  0  0  0  0  0  0  0  0  0
   -4.8861    0.1670    2.5174 H   0  0  0  0  0  0  0  0  0  0  0  0
   -6.3877    1.0889    2.3417 H   0  0  0  0  0  0  0  0  0  0  0  0
   -5.4060    1.2786    3.7959 H   0  0  0  0  0  0  0  0  0  0  0  0
   -7.3752   -0.0962    4.2426 H   0  0  0  0  0  0  0  0  0  0  0  0
   -8.2083   -1.6549    2.9245 H   0  0  0  0  0  0  0  0  0  0  0  0
   -7.0260   -1.2620    1.6805 H   0  0  0  0  0  0  0  0  0  0  0  0
   -5.5537   -2.9837    2.4022 H   0  0  0  0  0  0  0  0  0  0  0  0
   -7.0953   -3.7224    2.8756 H   0  0  0  0  0  0  0  0  0  0  0  0
   -4.6147   -1.3363    4.5060 H   0  0  0  0  0  0  0  0  0  0  0  0
   -4.5243    0.5382    6.0248 H   0  0  0  0  0  0  0  0  0  0  0  0
   -9.0051   -0.8219    7.8241 H   0  0  0  0  0  0  0  0  0  0  0  0
   -7.8844    3.9378    7.4604 H   0  0  0  0  0  0  0  0  0  0  0  0
   -6.0035    3.0012    6.0903 H   0  0  0  0  0  0  0  0  0  0  0  0
   -5.4627    2.9912    7.8014 H   0  0  0  0  0  0  0  0  0  0  0  0
  1  2  1  0
  2  3  1  0
  3  4  1  0
  4  5  1  0
  5  6  1  0
  6  7  1  0
  7  8  2  0
  8  9  1  0
  9 10  2  0
 10 11  1  0
 11 12  2  0
 12 13  1  0
 13 14  2  0
 13 15  2  0
 13 16  1  0
 10 17  1  0
 17 18  2  0
 17 19  1  0
 19 20  1  0
  6  2  1  0
 12  7  1  0
 20  9  1  0
  1 21  1  0
  1 22  1  0
  1 23  1  0
  2 24  1  0
  3 25  1  0
  3 26  1  0
  4 27  1  0
  4 28  1  0
  6 29  1  0
  8 30  1  0
 11 31  1  0
 19 32  1  0
 20 33  1  0
 20 34  1  0
M  END
>  <Energy>  (638) 
65.576006241221364

>  <compound_id>  (638) 
2745

>  <target_id>  (638) 
1

>  <reference_id>  (638) 
182

>  <inspiration_ids>  (638) 
[181, 182]

>  <energy_score>  (638) 
-20.639421603359096

>  <distance_score>  (638) 
1.4297542591471963

>  <path>  (638) 
/opt/xchem-fragalysis-2/maxwin/BulkDock/SCRATCH/505736/C2745-P182/C2745-P182.minimised.mol

>  <scratch_subdir>  (638) 
/opt/xchem-fragalysis-2/maxwin/BulkDock/SCRATCH/505736/C2745-P182

>  <fragmenstein_runtime>  (638) 
46.827314138412476

>  <fragmenstein_outcome>  (638) 
too moved

>  <fragmenstein_mode>  (638) 
expansion

>  <fragmenstein_error>  (638) 


$$$$
C2746-P182
     RDKit          3D

 33 35  0  0  0  0  0  0  0  0999 V2000
   -6.4472    0.8309    6.6222 C   0  0  0  0  0  0  0  0  0  0  0  0
   -7.0027   -0.5465    6.8343 C   0  0  0  0  0  0  0  0  0  0  0  0
   -7.9475   -0.6788    7.8513 C   0  0  0  0  0  0  0  0  0  0  0  0
   -8.5517   -1.9035    8.0503 C   0  0  0  0  0  0  0  0  0  0  0  0
   -8.0888   -3.0134    7.3652 C   0  0  0  0  0  0  0  0  0  0  0  0
   -8.5486   -4.2156    7.6676 F   0  0  0  0  0  0  0  0  0  0  0  0
   -7.1903   -2.9257    6.3326 C   0  0  0  0  0  0  0  0  0  0  0  0
   -6.7523   -1.6602    5.9654 C   0  0  0  0  0  0  0  0  0  0  0  0
   -6.5395   -1.4253    4.5249 C   0  0  0  0  0  0  0  0  0  0  0  0
   -7.7296   -1.4708    3.7856 C   0  0  0  0  0  0  0  0  0  0  0  0
   -7.9691   -0.4200    2.9432 C   0  0  0  0  0  0  0  0  0  0  0  0
   -6.9902    0.5489    2.7321 C   0  0  0  0  0  0  0  0  0  0  0  0
   -5.6883    0.3929    3.1620 C   0  0  0  0  0  0  0  0  0  0  0  0
   -5.4739   -0.6581    4.0493 C   0  0  0  0  0  0  0  0  0  0  0  0
   -3.8810   -1.1754    4.5407 S   0  0  0  0  0  0  0  0  0  0  0  0
   -2.9468   -0.7880    3.5052 O   0  0  0  0  0  0  0  0  0  0  0  0
   -3.6824   -0.8521    5.9359 O   0  0  0  0  0  0  0  0  0  0  0  0
   -3.9234   -2.7672    4.4788 F   0  0  0  0  0  0  0  0  0  0  0  0
   -7.6789    1.7240    2.1896 C   0  0  0  0  0  0  0  0  0  0  0  0
   -7.2295    2.8477    2.1085 O   0  0  0  0  0  0  0  0  0  0  0  0
   -8.9725    1.3390    1.9223 N   0  0  0  0  0  0  0  0  0  0  0  0
   -9.2657   -0.0010    2.3544 C   0  0  0  0  0  0  0  0  0  0  0  0
   -6.9683    1.3314    5.8008 H   0  0  0  0  0  0  0  0  0  0  0  0
   -6.5802    1.4525    7.5151 H   0  0  0  0  0  0  0  0  0  0  0  0
   -5.3752    0.8200    6.4294 H   0  0  0  0  0  0  0  0  0  0  0  0
   -8.2455    0.1680    8.4656 H   0  0  0  0  0  0  0  0  0  0  0  0
   -9.3300   -2.0171    8.7957 H   0  0  0  0  0  0  0  0  0  0  0  0
   -6.9844   -3.8114    5.7385 H   0  0  0  0  0  0  0  0  0  0  0  0
   -8.5610   -2.0974    4.0905 H   0  0  0  0  0  0  0  0  0  0  0  0
   -4.9075    1.0901    2.8815 H   0  0  0  0  0  0  0  0  0  0  0  0
   -9.6664    2.0225    1.6492 H   0  0  0  0  0  0  0  0  0  0  0  0
   -9.5532   -0.6041    1.4901 H   0  0  0  0  0  0  0  0  0  0  0  0
  -10.0678    0.0399    3.0962 H   0  0  0  0  0  0  0  0  0  0  0  0
  1  2  1  0
  2  3  2  0
  3  4  1  0
  4  5  2  0
  5  6  1  0
  5  7  1  0
  7  8  2  0
  8  9  1  0
  9 10  2  0
 10 11  1  0
 11 12  2  0
 12 13  1  0
 13 14  2  0
 14 15  1  0
 15 16  2  0
 15 17  2  0
 15 18  1  0
 12 19  1  0
 19 20  2  0
 19 21  1  0
 21 22  1  0
  8  2  1  0
 14  9  1  0
 22 11  1  0
  1 23  1  0
  1 24  1  0
  1 25  1  0
  3 26  1  0
  4 27  1  0
  7 28  1  0
 10 29  1  0
 13 30  1  0
 21 31  1  0
 22 32  1  0
 22 33  1  0
M  END
>  <Energy>  (639) 
84.603368225623285

>  <compound_id>  (639) 
2746

>  <target_id>  (639) 
1

>  <reference_id>  (639) 
182

>  <inspiration_ids>  (639) 
[182, 17]

>  <energy_score>  (639) 
16.742075443636594

>  <distance_score>  (639) 
1.6825691699746346

>  <path>  (639) 
/opt/xchem-fragalysis-2/maxwin/BulkDock/SCRATCH/505736/C2746-P182/C2746-P182.minimised.mol

>  <scratch_subdir>  (639) 
/opt/xchem-fragalysis-2/maxwin/BulkDock/SCRATCH/505736/C2746-P182

>  <fragmenstein_runtime>  (639) 
19.369059324264526

>  <fragmenstein_outcome>  (639) 
too moved

>  <fragmenstein_mode>  (639) 
expansion

>  <fragmenstein_error>  (639) 


$$$$
C2746-P17
     RDKit          3D

 33 35  0  0  0  0  0  0  0  0999 V2000
   -6.6822    0.8363    7.0033 C   0  0  0  0  0  0  0  0  0  0  0  0
   -7.1397   -0.5903    7.0904 C   0  0  0  0  0  0  0  0  0  0  0  0
   -7.8649   -0.9252    8.2336 C   0  0  0  0  0  0  0  0  0  0  0  0
   -8.3424   -2.2121    8.3657 C   0  0  0  0  0  0  0  0  0  0  0  0
   -7.9513   -3.1929    7.4723 C   0  0  0  0  0  0  0  0  0  0  0  0
   -8.2699   -4.4576    7.6964 F   0  0  0  0  0  0  0  0  0  0  0  0
   -7.2345   -2.9138    6.3412 C   0  0  0  0  0  0  0  0  0  0  0  0
   -6.9177   -1.5862    6.0841 C   0  0  0  0  0  0  0  0  0  0  0  0
   -6.7912   -1.2058    4.6745 C   0  0  0  0  0  0  0  0  0  0  0  0
   -8.0045   -1.2492    3.9737 C   0  0  0  0  0  0  0  0  0  0  0  0
   -8.2245   -0.2593    3.0576 C   0  0  0  0  0  0  0  0  0  0  0  0
   -7.2302    0.6758    2.7734 C   0  0  0  0  0  0  0  0  0  0  0  0
   -5.9333    0.5490    3.2246 C   0  0  0  0  0  0  0  0  0  0  0  0
   -5.7258   -0.4485    4.1727 C   0  0  0  0  0  0  0  0  0  0  0  0
   -4.1381   -0.8080    4.7898 S   0  0  0  0  0  0  0  0  0  0  0  0
   -3.1856   -0.6394    3.7129 O   0  0  0  0  0  0  0  0  0  0  0  0
   -3.9816   -0.1597    6.0720 O   0  0  0  0  0  0  0  0  0  0  0  0
   -4.1326   -2.3692    5.1001 F   0  0  0  0  0  0  0  0  0  0  0  0
   -7.9013    1.8122    2.1389 C   0  0  0  0  0  0  0  0  0  0  0  0
   -7.4451    2.9245    1.9810 O   0  0  0  0  0  0  0  0  0  0  0  0
   -9.1958    1.4197    1.8823 N   0  0  0  0  0  0  0  0  0  0  0  0
   -9.5175    0.1402    2.4521 C   0  0  0  0  0  0  0  0  0  0  0  0
   -7.3923    1.4987    7.5137 H   0  0  0  0  0  0  0  0  0  0  0  0
   -5.7136    0.9549    7.4960 H   0  0  0  0  0  0  0  0  0  0  0  0
   -6.6245    1.2135    5.9829 H   0  0  0  0  0  0  0  0  0  0  0  0
   -8.1058   -0.1852    8.9929 H   0  0  0  0  0  0  0  0  0  0  0  0
   -8.9936   -2.4835    9.1813 H   0  0  0  0  0  0  0  0  0  0  0  0
   -7.0601   -3.7082    5.6220 H   0  0  0  0  0  0  0  0  0  0  0  0
   -8.8472   -1.8443    4.3257 H   0  0  0  0  0  0  0  0  0  0  0  0
   -5.1560    1.2496    2.9354 H   0  0  0  0  0  0  0  0  0  0  0  0
   -9.8786    2.1062    1.5896 H   0  0  0  0  0  0  0  0  0  0  0  0
   -9.8433   -0.5378    1.6596 H   0  0  0  0  0  0  0  0  0  0  0  0
  -10.3017    0.2812    3.2010 H   0  0  0  0  0  0  0  0  0  0  0  0
  1  2  1  0
  2  3  2  0
  3  4  1  0
  4  5  2  0
  5  6  1  0
  5  7  1  0
  7  8  2  0
  8  9  1  0
  9 10  2  0
 10 11  1  0
 11 12  2  0
 12 13  1  0
 13 14  2  0
 14 15  1  0
 15 16  2  0
 15 17  2  0
 15 18  1  0
 12 19  1  0
 19 20  2  0
 19 21  1  0
 21 22  1  0
  8  2  1  0
 14  9  1  0
 22 11  1  0
  1 23  1  0
  1 24  1  0
  1 25  1  0
  3 26  1  0
  4 27  1  0
  7 28  1  0
 10 29  1  0
 13 30  1  0
 21 31  1  0
 22 32  1  0
 22 33  1  0
M  END
>  <Energy>  (640) 
72.22986011273801

>  <compound_id>  (640) 
2746

>  <target_id>  (640) 
1

>  <reference_id>  (640) 
17

>  <inspiration_ids>  (640) 
[182, 17]

>  <energy_score>  (640) 
4.3685673307516595

>  <distance_score>  (640) 
1.7629168336748395

>  <path>  (640) 
/opt/xchem-fragalysis-2/maxwin/BulkDock/SCRATCH/505736/C2746-P17/C2746-P17.minimised.mol

>  <scratch_subdir>  (640) 
/opt/xchem-fragalysis-2/maxwin/BulkDock/SCRATCH/505736/C2746-P17

>  <fragmenstein_runtime>  (640) 
18.952826499938965

>  <fragmenstein_outcome>  (640) 
too moved

>  <fragmenstein_mode>  (640) 
expansion

>  <fragmenstein_error>  (640) 


$$$$
C2750-P182
     RDKit          3D

 49 51  0  0  0  0  0  0  0  0999 V2000
   -8.0825   -3.3151    7.4699 C   0  0  0  0  0  0  0  0  0  0  0  0
   -8.6809   -2.0989    6.3591 S   0  0  0  0  0  0  0  0  0  0  0  0
   -9.2727   -2.7833    5.2372 O   0  0  0  0  0  0  0  0  0  0  0  0
   -9.4668   -1.1340    7.1014 O   0  0  0  0  0  0  0  0  0  0  0  0
   -7.2508   -1.2605    5.9782 N   0  0  0  0  0  0  0  0  0  0  0  0
   -6.2950   -1.4225    4.8285 C   0  0  0  0  0  0  0  0  0  0  0  0
   -6.6452   -2.5468    3.8825 C   0  0  0  0  0  0  0  0  0  0  0  0
   -7.5693   -2.0525    2.7801 C   0  0  0  0  0  0  0  0  0  0  0  0
   -8.4263   -0.8312    3.1509 C   0  0  0  0  0  0  0  0  0  0  0  0
   -7.6054    0.4262    3.6531 C   0  0  0  0  0  0  0  0  0  0  0  0
   -6.1811   -0.0737    3.9947 C   0  0  0  0  0  0  0  0  0  0  0  0
   -8.0313    1.0397    4.9713 N   0  0  0  0  0  0  0  0  0  0  0  0
   -9.2409    1.8174    4.7312 C   0  0  0  0  0  0  0  0  0  0  0  0
  -10.2942    0.9013    5.0616 N   0  0  0  0  0  0  0  0  0  0  0  0
  -11.4060    1.5558    5.6946 C   0  0  0  0  0  0  0  0  0  0  0  0
  -12.3006    0.4895    6.0462 N   0  0  0  0  0  0  0  0  0  0  0  0
   -9.1724    2.1539    3.2823 C   0  0  0  0  0  0  0  0  0  0  0  0
  -10.2069    2.6769    2.5268 C   0  0  0  0  0  0  0  0  0  0  0  0
  -10.1422    2.4748    1.1555 C   0  0  0  0  0  0  0  0  0  0  0  0
  -11.6368    2.4368    0.2279 S   0  0  0  0  0  0  0  0  0  0  0  0
  -11.5197    1.4045   -0.7827 O   0  0  0  0  0  0  0  0  0  0  0  0
  -12.7211    2.4532    1.1818 O   0  0  0  0  0  0  0  0  0  0  0  0
  -11.7174    3.8185   -0.5554 F   0  0  0  0  0  0  0  0  0  0  0  0
   -8.9765    2.0027    0.5475 C   0  0  0  0  0  0  0  0  0  0  0  0
   -7.9026    1.5529    1.3217 C   0  0  0  0  0  0  0  0  0  0  0  0
   -8.0595    1.5229    2.6930 C   0  0  0  0  0  0  0  0  0  0  0  0
   -8.9289   -3.8474    7.9000 H   0  0  0  0  0  0  0  0  0  0  0  0
   -7.5482   -2.7685    8.2387 H   0  0  0  0  0  0  0  0  0  0  0  0
   -7.4259   -4.0067    6.9404 H   0  0  0  0  0  0  0  0  0  0  0  0
   -7.4941   -0.2650    6.1097 H   0  0  0  0  0  0  0  0  0  0  0  0
   -5.3162   -1.6350    5.2755 H   0  0  0  0  0  0  0  0  0  0  0  0
   -7.0577   -3.4152    4.4026 H   0  0  0  0  0  0  0  0  0  0  0  0
   -5.7275   -2.9154    3.4046 H   0  0  0  0  0  0  0  0  0  0  0  0
   -6.9666   -1.7891    1.9002 H   0  0  0  0  0  0  0  0  0  0  0  0
   -8.1868   -2.8882    2.4578 H   0  0  0  0  0  0  0  0  0  0  0  0
   -9.0249   -0.6128    2.2558 H   0  0  0  0  0  0  0  0  0  0  0  0
   -9.1954   -1.0881    3.8684 H   0  0  0  0  0  0  0  0  0  0  0  0
   -5.5914   -0.2332    3.0830 H   0  0  0  0  0  0  0  0  0  0  0  0
   -5.6170    0.6695    4.5740 H   0  0  0  0  0  0  0  0  0  0  0  0
   -7.3252    1.7425    5.1988 H   0  0  0  0  0  0  0  0  0  0  0  0
   -9.2242    2.7187    5.3558 H   0  0  0  0  0  0  0  0  0  0  0  0
   -9.9049    0.2706    5.7629 H   0  0  0  0  0  0  0  0  0  0  0  0
  -11.9146    2.2560    5.0268 H   0  0  0  0  0  0  0  0  0  0  0  0
  -11.1083    2.0955    6.6002 H   0  0  0  0  0  0  0  0  0  0  0  0
  -11.7934   -0.1790    6.6289 H   0  0  0  0  0  0  0  0  0  0  0  0
  -12.5006   -0.0336    5.1920 H   0  0  0  0  0  0  0  0  0  0  0  0
  -11.1254    3.0029    3.0062 H   0  0  0  0  0  0  0  0  0  0  0  0
   -8.9452    1.8365   -0.5293 H   0  0  0  0  0  0  0  0  0  0  0  0
   -7.0880    1.0170    0.8404 H   0  0  0  0  0  0  0  0  0  0  0  0
  1  2  1  0
  2  3  2  0
  2  4  2  0
  2  5  1  0
  5  6  1  0
  6  7  1  0
  7  8  1  0
  8  9  1  0
  9 10  1  0
 10 11  1  0
 10 12  1  0
 12 13  1  0
 13 14  1  0
 14 15  1  0
 15 16  1  0
 13 17  1  0
 17 18  2  0
 18 19  1  0
 19 20  1  0
 20 21  2  0
 20 22  2  0
 20 23  1  0
 19 24  2  0
 24 25  1  0
 25 26  2  0
 11  6  1  0
 26 17  1  0
 26 10  1  0
  1 27  1  0
  1 28  1  0
  1 29  1  0
  5 30  1  0
  6 31  1  0
  7 32  1  0
  7 33  1  0
  8 34  1  0
  8 35  1  0
  9 36  1  0
  9 37  1  0
 11 38  1  0
 11 39  1  0
 12 40  1  0
 13 41  1  0
 14 42  1  0
 15 43  1  0
 15 44  1  0
 16 45  1  0
 16 46  1  0
 18 47  1  0
 24 48  1  0
 25 49  1  0
M  END
>  <Energy>  (641) 
-73.483789858592701

>  <compound_id>  (641) 
2750

>  <target_id>  (641) 
1

>  <reference_id>  (641) 
182

>  <inspiration_ids>  (641) 
[182, 73]

>  <energy_score>  (641) 
-24.836719897911024

>  <distance_score>  (641) 
2.1857369167172265

>  <path>  (641) 
/opt/xchem-fragalysis-2/maxwin/BulkDock/SCRATCH/505736/C2750-P182/C2750-P182.minimised.mol

>  <scratch_subdir>  (641) 
/opt/xchem-fragalysis-2/maxwin/BulkDock/SCRATCH/505736/C2750-P182

>  <fragmenstein_runtime>  (641) 
6.3171422481536865

>  <fragmenstein_outcome>  (641) 
too moved

>  <fragmenstein_mode>  (641) 
expansion

>  <fragmenstein_error>  (641) 


$$$$
C2750-P73
     RDKit          3D

 49 51  0  0  0  0  0  0  0  0999 V2000
   -8.2206   -3.4476    7.4566 C   0  0  0  0  0  0  0  0  0  0  0  0
   -8.8262   -2.3606    6.2125 S   0  0  0  0  0  0  0  0  0  0  0  0
   -9.3698   -3.1533    5.1348 O   0  0  0  0  0  0  0  0  0  0  0  0
   -9.6416   -1.3472    6.8551 O   0  0  0  0  0  0  0  0  0  0  0  0
   -7.3878   -1.5344    5.8054 N   0  0  0  0  0  0  0  0  0  0  0  0
   -6.4821   -1.6850    4.6136 C   0  0  0  0  0  0  0  0  0  0  0  0
   -6.9453   -2.6916    3.5827 C   0  0  0  0  0  0  0  0  0  0  0  0
   -7.9662   -2.0766    2.6293 C   0  0  0  0  0  0  0  0  0  0  0  0
   -8.6793   -0.8394    3.1826 C   0  0  0  0  0  0  0  0  0  0  0  0
   -7.7026    0.3223    3.6313 C   0  0  0  0  0  0  0  0  0  0  0  0
   -6.3072   -0.2980    3.8740 C   0  0  0  0  0  0  0  0  0  0  0  0
   -8.0251    0.9535    4.9656 N   0  0  0  0  0  0  0  0  0  0  0  0
   -9.1712    1.8353    4.7586 C   0  0  0  0  0  0  0  0  0  0  0  0
  -10.2876    1.0053    5.1046 N   0  0  0  0  0  0  0  0  0  0  0  0
  -11.2740    1.7083    5.8745 C   0  0  0  0  0  0  0  0  0  0  0  0
  -12.2671    0.7114    6.1638 N   0  0  0  0  0  0  0  0  0  0  0  0
   -9.1258    2.1688    3.3036 C   0  0  0  0  0  0  0  0  0  0  0  0
  -10.1564    2.7342    2.5712 C   0  0  0  0  0  0  0  0  0  0  0  0
  -10.1509    2.5015    1.2001 C   0  0  0  0  0  0  0  0  0  0  0  0
  -11.6799    2.4969    0.3261 S   0  0  0  0  0  0  0  0  0  0  0  0
  -11.6083    1.4825   -0.7067 O   0  0  0  0  0  0  0  0  0  0  0  0
  -12.7254    2.4984    1.3225 O   0  0  0  0  0  0  0  0  0  0  0  0
  -11.7782    3.8946   -0.4253 F   0  0  0  0  0  0  0  0  0  0  0  0
   -9.0362    1.9537    0.5604 C   0  0  0  0  0  0  0  0  0  0  0  0
   -7.9690    1.4508    1.3062 C   0  0  0  0  0  0  0  0  0  0  0  0
   -8.0841    1.4538    2.6824 C   0  0  0  0  0  0  0  0  0  0  0  0
   -9.0348   -4.0801    7.7971 H   0  0  0  0  0  0  0  0  0  0  0  0
   -7.8694   -2.8276    8.2791 H   0  0  0  0  0  0  0  0  0  0  0  0
   -7.4219   -4.0638    7.0414 H   0  0  0  0  0  0  0  0  0  0  0  0
   -7.5910   -0.5386    5.9945 H   0  0  0  0  0  0  0  0  0  0  0  0
   -5.5072   -2.0026    5.0023 H   0  0  0  0  0  0  0  0  0  0  0  0
   -7.3125   -3.6074    4.0462 H   0  0  0  0  0  0  0  0  0  0  0  0
   -6.0835   -3.0127    2.9817 H   0  0  0  0  0  0  0  0  0  0  0  0
   -7.4603   -1.7984    1.6953 H   0  0  0  0  0  0  0  0  0  0  0  0
   -8.7035   -2.8284    2.3473 H   0  0  0  0  0  0  0  0  0  0  0  0
   -9.3918   -0.5236    2.4077 H   0  0  0  0  0  0  0  0  0  0  0  0
   -9.3448   -1.1216    3.9910 H   0  0  0  0  0  0  0  0  0  0  0  0
   -5.7703   -0.4336    2.9263 H   0  0  0  0  0  0  0  0  0  0  0  0
   -5.6693    0.3620    4.4761 H   0  0  0  0  0  0  0  0  0  0  0  0
   -7.2543    1.5872    5.1811 H   0  0  0  0  0  0  0  0  0  0  0  0
   -9.0656    2.7314    5.3816 H   0  0  0  0  0  0  0  0  0  0  0  0
   -9.9217    0.2657    5.7071 H   0  0  0  0  0  0  0  0  0  0  0  0
  -11.7278    2.5317    5.3150 H   0  0  0  0  0  0  0  0  0  0  0  0
  -10.8654    2.1058    6.8098 H   0  0  0  0  0  0  0  0  0  0  0  0
  -11.7993   -0.0664    6.6346 H   0  0  0  0  0  0  0  0  0  0  0  0
  -12.5490    0.3113    5.2674 H   0  0  0  0  0  0  0  0  0  0  0  0
  -11.0431    3.1080    3.0766 H   0  0  0  0  0  0  0  0  0  0  0  0
   -9.0511    1.7675   -0.5137 H   0  0  0  0  0  0  0  0  0  0  0  0
   -7.2075    0.8553    0.8082 H   0  0  0  0  0  0  0  0  0  0  0  0
  1  2  1  0
  2  3  2  0
  2  4  2  0
  2  5  1  0
  5  6  1  0
  6  7  1  0
  7  8  1  0
  8  9  1  0
  9 10  1  0
 10 11  1  0
 10 12  1  0
 12 13  1  0
 13 14  1  0
 14 15  1  0
 15 16  1  0
 13 17  1  0
 17 18  2  0
 18 19  1  0
 19 20  1  0
 20 21  2  0
 20 22  2  0
 20 23  1  0
 19 24  2  0
 24 25  1  0
 25 26  2  0
 11  6  1  0
 26 17  1  0
 26 10  1  0
  1 27  1  0
  1 28  1  0
  1 29  1  0
  5 30  1  0
  6 31  1  0
  7 32  1  0
  7 33  1  0
  8 34  1  0
  8 35  1  0
  9 36  1  0
  9 37  1  0
 11 38  1  0
 11 39  1  0
 12 40  1  0
 13 41  1  0
 14 42  1  0
 15 43  1  0
 15 44  1  0
 16 45  1  0
 16 46  1  0
 18 47  1  0
 24 48  1  0
 25 49  1  0
M  END
>  <Energy>  (642) 
-76.159503373098119

>  <compound_id>  (642) 
2750

>  <target_id>  (642) 
1

>  <reference_id>  (642) 
73

>  <inspiration_ids>  (642) 
[182, 73]

>  <energy_score>  (642) 
-27.512433412416687

>  <distance_score>  (642) 
2.2134890795506728

>  <path>  (642) 
/opt/xchem-fragalysis-2/maxwin/BulkDock/SCRATCH/505736/C2750-P73/C2750-P73.minimised.mol

>  <scratch_subdir>  (642) 
/opt/xchem-fragalysis-2/maxwin/BulkDock/SCRATCH/505736/C2750-P73

>  <fragmenstein_runtime>  (642) 
6.240316390991211

>  <fragmenstein_outcome>  (642) 
too moved

>  <fragmenstein_mode>  (642) 
expansion

>  <fragmenstein_error>  (642) 


$$$$
C2751-P182
     RDKit          3D

 42 44  0  0  0  0  0  0  0  0999 V2000
  -11.3895    3.0166    5.3440 C   0  0  0  0  0  0  0  0  0  0  0  0
  -10.4962    2.3157    4.3515 N   0  0  0  0  0  0  0  0  0  0  0  0
  -11.5468    2.8055    3.3844 C   0  0  0  0  0  0  0  0  0  0  0  0
  -11.0725    2.4221    1.9779 C   0  0  0  0  0  0  0  0  0  0  0  0
  -10.4373    3.3658    1.1583 C   0  0  0  0  0  0  0  0  0  0  0  0
   -9.9635    3.0032   -0.1045 C   0  0  0  0  0  0  0  0  0  0  0  0
  -10.1102    1.6930   -0.5569 C   0  0  0  0  0  0  0  0  0  0  0  0
  -10.7359    0.7448    0.2486 C   0  0  0  0  0  0  0  0  0  0  0  0
  -11.2179    1.1072    1.5071 C   0  0  0  0  0  0  0  0  0  0  0  0
  -10.1922    0.9640    4.8182 C   0  0  0  0  0  0  0  0  0  0  0  0
  -10.7506   -0.0521    4.6187 O   0  0  0  0  0  0  0  0  0  0  0  0
   -8.9311    1.2362    5.5279 N   0  0  0  0  0  0  0  0  0  0  0  0
   -7.9951    0.3678    6.0841 C   0  0  0  0  0  0  0  0  0  0  0  0
   -8.2679   -1.0018    6.1155 C   0  0  0  0  0  0  0  0  0  0  0  0
   -7.2973   -1.9187    6.5392 C   0  0  0  0  0  0  0  0  0  0  0  0
   -7.6245   -3.6233    6.2461 S   0  0  0  0  0  0  0  0  0  0  0  0
   -8.3408   -4.1478    7.3847 O   0  0  0  0  0  0  0  0  0  0  0  0
   -6.3911   -4.1881    5.7478 O   0  0  0  0  0  0  0  0  0  0  0  0
   -8.6408   -3.6589    5.0226 F   0  0  0  0  0  0  0  0  0  0  0  0
   -6.0416   -1.5090    6.9769 C   0  0  0  0  0  0  0  0  0  0  0  0
   -5.8125   -0.1493    6.9680 C   0  0  0  0  0  0  0  0  0  0  0  0
   -6.7570    0.7918    6.5353 C   0  0  0  0  0  0  0  0  0  0  0  0
   -6.1627    2.1574    6.6182 C   0  0  0  0  0  0  0  0  0  0  0  0
   -4.8108    1.8983    7.0491 N   0  0  0  0  0  0  0  0  0  0  0  0
   -4.5781    0.5651    7.3024 C   0  0  0  0  0  0  0  0  0  0  0  0
   -3.5523    0.0677    7.7170 O   0  0  0  0  0  0  0  0  0  0  0  0
  -10.9114    2.8691    6.3244 H   0  0  0  0  0  0  0  0  0  0  0  0
  -12.3779    2.5512    5.4821 H   0  0  0  0  0  0  0  0  0  0  0  0
  -11.4120    4.1117    5.2437 H   0  0  0  0  0  0  0  0  0  0  0  0
  -11.6751    3.8992    3.3482 H   0  0  0  0  0  0  0  0  0  0  0  0
  -12.5125    2.2874    3.5030 H   0  0  0  0  0  0  0  0  0  0  0  0
  -10.2951    4.3876    1.5010 H   0  0  0  0  0  0  0  0  0  0  0  0
   -9.4704    3.7403   -0.7325 H   0  0  0  0  0  0  0  0  0  0  0  0
   -9.7325    1.4077   -1.5350 H   0  0  0  0  0  0  0  0  0  0  0  0
  -10.8400   -0.2827   -0.0923 H   0  0  0  0  0  0  0  0  0  0  0  0
  -11.6866    0.3470    2.1311 H   0  0  0  0  0  0  0  0  0  0  0  0
   -8.7051    2.2167    5.4377 H   0  0  0  0  0  0  0  0  0  0  0  0
   -9.2271   -1.3797    5.7712 H   0  0  0  0  0  0  0  0  0  0  0  0
   -5.2616   -2.2098    7.2569 H   0  0  0  0  0  0  0  0  0  0  0  0
   -6.6614    2.7777    7.3674 H   0  0  0  0  0  0  0  0  0  0  0  0
   -6.1293    2.6587    5.6476 H   0  0  0  0  0  0  0  0  0  0  0  0
   -4.1239    2.5976    7.3173 H   0  0  0  0  0  0  0  0  0  0  0  0
  1  2  1  0
  2  3  1  0
  3  4  1  0
  4  5  2  0
  5  6  1  0
  6  7  2  0
  7  8  1  0
  8  9  2  0
  2 10  1  0
 10 11  2  0
 10 12  1  0
 12 13  1  0
 13 14  2  0
 14 15  1  0
 15 16  1  0
 16 17  2  0
 16 18  2  0
 16 19  1  0
 15 20  2  0
 20 21  1  0
 21 22  2  0
 22 23  1  0
 23 24  1  0
 24 25  1  0
 25 26  2  0
  9  4  1  0
 22 13  1  0
 25 21  1  0
  1 27  1  0
  1 28  1  0
  1 29  1  0
  3 30  1  0
  3 31  1  0
  5 32  1  0
  6 33  1  0
  7 34  1  0
  8 35  1  0
  9 36  1  0
 12 37  1  0
 14 38  1  0
 20 39  1  0
 23 40  1  0
 23 41  1  0
 24 42  1  0
M  END
>  <Energy>  (643) 
42.706832116193063

>  <compound_id>  (643) 
2751

>  <target_id>  (643) 
1

>  <reference_id>  (643) 
182

>  <inspiration_ids>  (643) 
[182, 74]

>  <energy_score>  (643) 
31.553792881211166

>  <distance_score>  (643) 
2.5935045501017986

>  <path>  (643) 
/opt/xchem-fragalysis-2/maxwin/BulkDock/SCRATCH/505736/C2751-P182/C2751-P182.minimised.mol

>  <scratch_subdir>  (643) 
/opt/xchem-fragalysis-2/maxwin/BulkDock/SCRATCH/505736/C2751-P182

>  <fragmenstein_runtime>  (643) 
23.16562509536743

>  <fragmenstein_outcome>  (643) 
too moved

>  <fragmenstein_mode>  (643) 
expansion

>  <fragmenstein_error>  (643) 


$$$$
C2751-P74
     RDKit          3D

 42 44  0  0  0  0  0  0  0  0999 V2000
   -8.5731    3.8888    3.2691 C   0  0  0  0  0  0  0  0  0  0  0  0
   -8.8214    2.5068    2.7337 N   0  0  0  0  0  0  0  0  0  0  0  0
   -9.1513    3.3147    1.5096 C   0  0  0  0  0  0  0  0  0  0  0  0
  -10.0294    2.3488    0.6948 C   0  0  0  0  0  0  0  0  0  0  0  0
  -11.4000    2.2217    0.9835 C   0  0  0  0  0  0  0  0  0  0  0  0
  -12.1605    1.2562    0.3306 C   0  0  0  0  0  0  0  0  0  0  0  0
  -11.5569    0.4099   -0.5990 C   0  0  0  0  0  0  0  0  0  0  0  0
  -10.2031    0.5252   -0.8926 C   0  0  0  0  0  0  0  0  0  0  0  0
   -9.4424    1.4898   -0.2444 C   0  0  0  0  0  0  0  0  0  0  0  0
   -7.6431    1.5864    3.0212 C   0  0  0  0  0  0  0  0  0  0  0  0
   -6.7095    1.3667    2.4006 O   0  0  0  0  0  0  0  0  0  0  0  0
   -8.1295    0.9667    4.3401 N   0  0  0  0  0  0  0  0  0  0  0  0
   -7.6168   -0.0845    5.0811 C   0  0  0  0  0  0  0  0  0  0  0  0
   -8.5909   -0.8037    5.7605 C   0  0  0  0  0  0  0  0  0  0  0  0
   -8.2729   -1.9206    6.5308 C   0  0  0  0  0  0  0  0  0  0  0  0
   -9.6189   -2.6951    7.3062 S   0  0  0  0  0  0  0  0  0  0  0  0
  -10.3410   -3.4104    6.2709 O   0  0  0  0  0  0  0  0  0  0  0  0
  -10.2112   -1.6267    8.0875 O   0  0  0  0  0  0  0  0  0  0  0  0
   -8.9967   -3.7713    8.2943 F   0  0  0  0  0  0  0  0  0  0  0  0
   -6.9757   -2.3177    6.7454 C   0  0  0  0  0  0  0  0  0  0  0  0
   -6.0301   -1.5672    6.0897 C   0  0  0  0  0  0  0  0  0  0  0  0
   -6.3172   -0.5132    5.2073 C   0  0  0  0  0  0  0  0  0  0  0  0
   -5.0587   -0.0639    4.5600 C   0  0  0  0  0  0  0  0  0  0  0  0
   -4.0665   -0.9013    5.1840 N   0  0  0  0  0  0  0  0  0  0  0  0
   -4.5925   -1.7661    6.1100 C   0  0  0  0  0  0  0  0  0  0  0  0
   -4.0064   -2.5854    6.7842 O   0  0  0  0  0  0  0  0  0  0  0  0
   -8.1737    3.7332    4.2831 H   0  0  0  0  0  0  0  0  0  0  0  0
   -7.7616    4.4501    2.7767 H   0  0  0  0  0  0  0  0  0  0  0  0
   -9.4927    4.4642    3.4578 H   0  0  0  0  0  0  0  0  0  0  0  0
   -8.2448    3.5252    0.9213 H   0  0  0  0  0  0  0  0  0  0  0  0
   -9.7918    4.2117    1.5846 H   0  0  0  0  0  0  0  0  0  0  0  0
  -11.8666    2.8514    1.7363 H   0  0  0  0  0  0  0  0  0  0  0  0
  -13.2172    1.1454    0.5597 H   0  0  0  0  0  0  0  0  0  0  0  0
  -12.1529   -0.3529   -1.0950 H   0  0  0  0  0  0  0  0  0  0  0  0
   -9.7397   -0.1468   -1.6093 H   0  0  0  0  0  0  0  0  0  0  0  0
   -8.3744    1.5462   -0.4452 H   0  0  0  0  0  0  0  0  0  0  0  0
   -9.0434    1.3375    4.5730 H   0  0  0  0  0  0  0  0  0  0  0  0
   -9.6403   -0.5165    5.6671 H   0  0  0  0  0  0  0  0  0  0  0  0
   -6.7017   -3.1711    7.3481 H   0  0  0  0  0  0  0  0  0  0  0  0
   -4.8282    0.9842    4.7610 H   0  0  0  0  0  0  0  0  0  0  0  0
   -5.0476   -0.2748    3.4882 H   0  0  0  0  0  0  0  0  0  0  0  0
   -3.1217   -1.0127    4.8536 H   0  0  0  0  0  0  0  0  0  0  0  0
  1  2  1  0
  2  3  1  0
  3  4  1  0
  4  5  2  0
  5  6  1  0
  6  7  2  0
  7  8  1  0
  8  9  2  0
  2 10  1  0
 10 11  2  0
 10 12  1  0
 12 13  1  0
 13 14  2  0
 14 15  1  0
 15 16  1  0
 16 17  2  0
 16 18  2  0
 16 19  1  0
 15 20  2  0
 20 21  1  0
 21 22  2  0
 22 23  1  0
 23 24  1  0
 24 25  1  0
 25 26  2  0
  9  4  1  0
 22 13  1  0
 25 21  1  0
  1 27  1  0
  1 28  1  0
  1 29  1  0
  3 30  1  0
  3 31  1  0
  5 32  1  0
  6 33  1  0
  7 34  1  0
  8 35  1  0
  9 36  1  0
 12 37  1  0
 14 38  1  0
 20 39  1  0
 23 40  1  0
 23 41  1  0
 24 42  1  0
M  END
>  <Energy>  (644) 
65.794451432205861

>  <compound_id>  (644) 
2751

>  <target_id>  (644) 
1

>  <reference_id>  (644) 
74

>  <inspiration_ids>  (644) 
[182, 74]

>  <energy_score>  (644) 
44.782301270175

>  <distance_score>  (644) 
2.4859026754251796

>  <path>  (644) 
/opt/xchem-fragalysis-2/maxwin/BulkDock/SCRATCH/505736/C2751-P74/C2751-P74.minimised.mol

>  <scratch_subdir>  (644) 
/opt/xchem-fragalysis-2/maxwin/BulkDock/SCRATCH/505736/C2751-P74

>  <fragmenstein_runtime>  (644) 
20.203232049942017

>  <fragmenstein_outcome>  (644) 
too moved

>  <fragmenstein_mode>  (644) 
expansion

>  <fragmenstein_error>  (644) 


$$$$
C2751-P182
     RDKit          2D

  0  0  0  0  0  0  0  0  0  0999 V2000
M  END
>  <compound_id>  (645) 
2751

>  <target_id>  (645) 
1

>  <reference_id>  (645) 
182

>  <inspiration_ids>  (645) 
[182, 99]

>  <energy_score>  (645) 
nan

>  <distance_score>  (645) 
nan

>  <path>  (645) 
/opt/xchem-fragalysis-2/maxwin/BulkDock/SCRATCH/505736/C2751-P182/C2751-P182.minimised.mol

>  <scratch_subdir>  (645) 
/opt/xchem-fragalysis-2/maxwin/BulkDock/SCRATCH/505736/C2751-P182

>  <fragmenstein_runtime>  (645) 
12.663968563079834

>  <fragmenstein_outcome>  (645) 
too distant

>  <fragmenstein_mode>  (645) 
expansion

>  <fragmenstein_error>  (645) 
DistanceError: hit1

$$$$
C2751-P182
     RDKit          3D

 42 44  0  0  0  0  0  0  0  0999 V2000
  -11.9602    1.3162    5.5456 C   0  0  0  0  0  0  0  0  0  0  0  0
  -11.7177    0.2737    6.6038 N   0  0  0  0  0  0  0  0  0  0  0  0
  -11.5362   -0.6030    5.3978 C   0  0  0  0  0  0  0  0  0  0  0  0
  -10.0574   -0.8569    5.0993 C   0  0  0  0  0  0  0  0  0  0  0  0
   -9.4958   -0.5437    3.8530 C   0  0  0  0  0  0  0  0  0  0  0  0
   -8.1563   -0.8433    3.5817 C   0  0  0  0  0  0  0  0  0  0  0  0
   -7.3638   -1.4605    4.5476 C   0  0  0  0  0  0  0  0  0  0  0  0
   -7.9073   -1.7735    5.7906 C   0  0  0  0  0  0  0  0  0  0  0  0
   -9.2426   -1.4696    6.0674 C   0  0  0  0  0  0  0  0  0  0  0  0
  -12.7915    0.3110    7.6008 C   0  0  0  0  0  0  0  0  0  0  0  0
  -13.8113   -0.2761    7.6460 O   0  0  0  0  0  0  0  0  0  0  0  0
  -12.1767    1.2144    8.5591 N   0  0  0  0  0  0  0  0  0  0  0  0
  -12.5634    1.5809    9.8468 C   0  0  0  0  0  0  0  0  0  0  0  0
  -13.6916    1.1329   10.5414 C   0  0  0  0  0  0  0  0  0  0  0  0
  -13.9057    1.5604   11.8820 C   0  0  0  0  0  0  0  0  0  0  0  0
  -15.3654    1.0529   12.7629 S   0  0  0  0  0  0  0  0  0  0  0  0
  -15.1128    1.1076   14.1918 O   0  0  0  0  0  0  0  0  0  0  0  0
  -15.8831   -0.1481   12.1444 O   0  0  0  0  0  0  0  0  0  0  0  0
  -16.4568    2.1792   12.4890 F   0  0  0  0  0  0  0  0  0  0  0  0
  -12.9917    2.3879   12.5484 C   0  0  0  0  0  0  0  0  0  0  0  0
  -11.9052    2.8230   11.8228 C   0  0  0  0  0  0  0  0  0  0  0  0
  -11.7015    2.4519   10.4971 C   0  0  0  0  0  0  0  0  0  0  0  0
  -10.4651    3.1035    9.9729 C   0  0  0  0  0  0  0  0  0  0  0  0
  -10.0373    3.9141   11.0749 N   0  0  0  0  0  0  0  0  0  0  0  0
  -10.7647    3.6634   12.2146 C   0  0  0  0  0  0  0  0  0  0  0  0
  -10.4557    4.0043   13.3367 O   0  0  0  0  0  0  0  0  0  0  0  0
  -12.9417    1.2198    5.0538 H   0  0  0  0  0  0  0  0  0  0  0  0
  -11.1236    1.5123    4.8609 H   0  0  0  0  0  0  0  0  0  0  0  0
  -12.0570    2.2659    6.0936 H   0  0  0  0  0  0  0  0  0  0  0  0
  -11.9054   -1.5762    5.7639 H   0  0  0  0  0  0  0  0  0  0  0  0
  -12.1680   -0.4994    4.4963 H   0  0  0  0  0  0  0  0  0  0  0  0
  -10.0996   -0.0900    3.0697 H   0  0  0  0  0  0  0  0  0  0  0  0
   -7.7387   -0.6137    2.6040 H   0  0  0  0  0  0  0  0  0  0  0  0
   -6.3279   -1.7059    4.3292 H   0  0  0  0  0  0  0  0  0  0  0  0
   -7.2969   -2.2632    6.5461 H   0  0  0  0  0  0  0  0  0  0  0  0
   -9.6539   -1.7318    7.0434 H   0  0  0  0  0  0  0  0  0  0  0  0
  -11.2580    1.4726    8.2273 H   0  0  0  0  0  0  0  0  0  0  0  0
  -14.3951    0.4521   10.0636 H   0  0  0  0  0  0  0  0  0  0  0  0
  -13.1258    2.6958   13.5802 H   0  0  0  0  0  0  0  0  0  0  0  0
  -10.6599    3.7518    9.1147 H   0  0  0  0  0  0  0  0  0  0  0  0
   -9.6904    2.3679    9.7431 H   0  0  0  0  0  0  0  0  0  0  0  0
   -9.0891    4.2595   11.1676 H   0  0  0  0  0  0  0  0  0  0  0  0
  1  2  1  0
  2  3  1  0
  3  4  1  0
  4  5  2  0
  5  6  1  0
  6  7  2  0
  7  8  1  0
  8  9  2  0
  2 10  1  0
 10 11  2  0
 10 12  1  0
 12 13  1  0
 13 14  2  0
 14 15  1  0
 15 16  1  0
 16 17  2  0
 16 18  2  0
 16 19  1  0
 15 20  2  0
 20 21  1  0
 21 22  2  0
 22 23  1  0
 23 24  1  0
 24 25  1  0
 25 26  2  0
  9  4  1  0
 22 13  1  0
 25 21  1  0
  1 27  1  0
  1 28  1  0
  1 29  1  0
  3 30  1  0
  3 31  1  0
  5 32  1  0
  6 33  1  0
  7 34  1  0
  8 35  1  0
  9 36  1  0
 12 37  1  0
 14 38  1  0
 20 39  1  0
 23 40  1  0
 23 41  1  0
 24 42  1  0
M  END
>  <Energy>  (646) 
48.930251339805373

>  <compound_id>  (646) 
2751

>  <target_id>  (646) 
1

>  <reference_id>  (646) 
182

>  <inspiration_ids>  (646) 
[182, 126]

>  <energy_score>  (646) 
23.64715193583785

>  <distance_score>  (646) 
3.305775327825318

>  <path>  (646) 
/opt/xchem-fragalysis-2/maxwin/BulkDock/SCRATCH/505736/C2751-P182/C2751-P182.minimised.mol

>  <scratch_subdir>  (646) 
/opt/xchem-fragalysis-2/maxwin/BulkDock/SCRATCH/505736/C2751-P182

>  <fragmenstein_runtime>  (646) 
20.111464500427246

>  <fragmenstein_outcome>  (646) 
too moved

>  <fragmenstein_mode>  (646) 
expansion

>  <fragmenstein_error>  (646) 


$$$$
C2751-P126
     RDKit          3D

 42 44  0  0  0  0  0  0  0  0999 V2000
  -12.1195    0.6899    5.6066 C   0  0  0  0  0  0  0  0  0  0  0  0
  -11.8296   -0.3671    6.6387 N   0  0  0  0  0  0  0  0  0  0  0  0
  -11.7888   -1.2498    5.4141 C   0  0  0  0  0  0  0  0  0  0  0  0
  -10.4140   -1.3898    4.7637 C   0  0  0  0  0  0  0  0  0  0  0  0
  -10.2209   -1.0498    3.4156 C   0  0  0  0  0  0  0  0  0  0  0  0
   -8.9654   -1.1799    2.8225 C   0  0  0  0  0  0  0  0  0  0  0  0
   -7.8952   -1.6698    3.5633 C   0  0  0  0  0  0  0  0  0  0  0  0
   -8.0730   -2.0240    4.8998 C   0  0  0  0  0  0  0  0  0  0  0  0
   -9.3248   -1.8788    5.4997 C   0  0  0  0  0  0  0  0  0  0  0  0
  -12.8112   -0.2903    7.7236 C   0  0  0  0  0  0  0  0  0  0  0  0
  -13.8451   -0.8346    7.8546 O   0  0  0  0  0  0  0  0  0  0  0  0
  -12.0811    0.5832    8.6291 N   0  0  0  0  0  0  0  0  0  0  0  0
  -12.4291    1.1037    9.8730 C   0  0  0  0  0  0  0  0  0  0  0  0
  -13.5860    0.7869   10.5969 C   0  0  0  0  0  0  0  0  0  0  0  0
  -13.8049    1.3778   11.8704 C   0  0  0  0  0  0  0  0  0  0  0  0
  -15.2914    1.0272   12.7818 S   0  0  0  0  0  0  0  0  0  0  0  0
  -15.0431    1.2085   14.2015 O   0  0  0  0  0  0  0  0  0  0  0  0
  -15.8663   -0.2024   12.2818 O   0  0  0  0  0  0  0  0  0  0  0  0
  -16.3275    2.1720   12.3929 F   0  0  0  0  0  0  0  0  0  0  0  0
  -12.8743    2.2540   12.4418 C   0  0  0  0  0  0  0  0  0  0  0  0
  -11.7586    2.5543   11.6910 C   0  0  0  0  0  0  0  0  0  0  0  0
  -11.5358    2.0038   10.4313 C   0  0  0  0  0  0  0  0  0  0  0  0
  -10.2581    2.5289    9.8668 C   0  0  0  0  0  0  0  0  0  0  0  0
   -9.8419    3.4819   10.8548 N   0  0  0  0  0  0  0  0  0  0  0  0
  -10.6154    3.4267   11.9906 C   0  0  0  0  0  0  0  0  0  0  0  0
  -10.3461    3.9414   13.0551 O   0  0  0  0  0  0  0  0  0  0  0  0
  -11.3115    0.9066    4.8982 H   0  0  0  0  0  0  0  0  0  0  0  0
  -12.1898    1.6308    6.1747 H   0  0  0  0  0  0  0  0  0  0  0  0
  -13.1210    0.6168    5.1539 H   0  0  0  0  0  0  0  0  0  0  0  0
  -12.6381   -1.2204    4.7092 H   0  0  0  0  0  0  0  0  0  0  0  0
  -11.9582   -2.2371    5.8717 H   0  0  0  0  0  0  0  0  0  0  0  0
  -11.0534   -0.6880    2.8170 H   0  0  0  0  0  0  0  0  0  0  0  0
   -8.8247   -0.9125    1.7788 H   0  0  0  0  0  0  0  0  0  0  0  0
   -6.9271   -1.7780    3.0850 H   0  0  0  0  0  0  0  0  0  0  0  0
   -7.2429   -2.4221    5.4763 H   0  0  0  0  0  0  0  0  0  0  0  0
   -9.4586   -2.1675    6.5415 H   0  0  0  0  0  0  0  0  0  0  0  0
  -11.1840    0.8057    8.2218 H   0  0  0  0  0  0  0  0  0  0  0  0
  -14.3117    0.0842   10.1871 H   0  0  0  0  0  0  0  0  0  0  0  0
  -13.0189    2.6998   13.4194 H   0  0  0  0  0  0  0  0  0  0  0  0
  -10.3959    3.0480    8.9150 H   0  0  0  0  0  0  0  0  0  0  0  0
   -9.4999    1.7453    9.7849 H   0  0  0  0  0  0  0  0  0  0  0  0
   -8.8915    3.8286   10.9263 H   0  0  0  0  0  0  0  0  0  0  0  0
  1  2  1  0
  2  3  1  0
  3  4  1  0
  4  5  2  0
  5  6  1  0
  6  7  2  0
  7  8  1  0
  8  9  2  0
  2 10  1  0
 10 11  2  0
 10 12  1  0
 12 13  1  0
 13 14  2  0
 14 15  1  0
 15 16  1  0
 16 17  2  0
 16 18  2  0
 16 19  1  0
 15 20  2  0
 20 21  1  0
 21 22  2  0
 22 23  1  0
 23 24  1  0
 24 25  1  0
 25 26  2  0
  9  4  1  0
 22 13  1  0
 25 21  1  0
  1 27  1  0
  1 28  1  0
  1 29  1  0
  3 30  1  0
  3 31  1  0
  5 32  1  0
  6 33  1  0
  7 34  1  0
  8 35  1  0
  9 36  1  0
 12 37  1  0
 14 38  1  0
 20 39  1  0
 23 40  1  0
 23 41  1  0
 24 42  1  0
M  END
>  <Energy>  (647) 
47.0498513237102

>  <compound_id>  (647) 
2751

>  <target_id>  (647) 
1

>  <reference_id>  (647) 
126

>  <inspiration_ids>  (647) 
[182, 126]

>  <energy_score>  (647) 
21.766751919740287

>  <distance_score>  (647) 
3.4263753472735767

>  <path>  (647) 
/opt/xchem-fragalysis-2/maxwin/BulkDock/SCRATCH/505736/C2751-P126/C2751-P126.minimised.mol

>  <scratch_subdir>  (647) 
/opt/xchem-fragalysis-2/maxwin/BulkDock/SCRATCH/505736/C2751-P126

>  <fragmenstein_runtime>  (647) 
21.938534259796143

>  <fragmenstein_outcome>  (647) 
too moved

>  <fragmenstein_mode>  (647) 
expansion

>  <fragmenstein_error>  (647) 


$$$$
C2759-P183
     RDKit          3D

 38 39  0  0  0  0  0  0  0  0999 V2000
   -1.2592   -7.6318   31.0134 N   0  0  0  0  0  0  0  0  0  0  0  0
   -0.5288   -6.4010   30.8545 C   0  0  0  0  0  0  0  0  0  0  0  0
    0.7429   -6.9046   30.4676 N   0  0  0  0  0  0  0  0  0  0  0  0
   -0.3642   -5.4702   32.0378 C   0  0  0  0  0  0  0  0  0  0  0  0
   -0.4014   -6.0706   33.3461 C   0  0  0  0  0  0  0  0  0  0  0  0
   -0.0257   -5.3614   34.4810 C   0  0  0  0  0  0  0  0  0  0  0  0
    0.0093   -6.1313   36.0867 S   0  0  0  0  0  0  0  0  0  0  0  0
    1.3446   -5.9491   36.6236 O   0  0  0  0  0  0  0  0  0  0  0  0
   -1.1757   -5.7150   36.8042 O   0  0  0  0  0  0  0  0  0  0  0  0
   -0.1344   -7.7001   35.8712 F   0  0  0  0  0  0  0  0  0  0  0  0
    0.3912   -4.0469   34.3458 C   0  0  0  0  0  0  0  0  0  0  0  0
    0.3937   -3.4254   33.0795 C   0  0  0  0  0  0  0  0  0  0  0  0
    0.0157   -4.0775   31.8762 C   0  0  0  0  0  0  0  0  0  0  0  0
    0.0717   -3.2241   30.5062 C   0  0  0  0  0  0  0  0  0  0  0  0
    0.8615   -3.9308   29.4970 N   0  0  0  0  0  0  0  0  0  0  0  0
    0.7702   -1.7650   30.6361 C   0  0  0  0  0  0  0  0  0  0  0  0
    0.7863   -0.8923   29.4306 N   0  0  0  0  0  0  0  0  0  0  0  0
   -0.5310   -0.8652   28.7784 C   0  0  0  0  0  0  0  0  0  0  0  0
   -1.6172   -1.6744   29.5159 C   0  0  0  0  0  0  0  0  0  0  0  0
   -1.2486   -3.0672   29.8860 N   0  0  0  0  0  0  0  0  0  0  0  0
   -0.8443   -8.1849   31.7556 H   0  0  0  0  0  0  0  0  0  0  0  0
   -0.9687   -8.1524   30.1820 H   0  0  0  0  0  0  0  0  0  0  0  0
   -0.9090   -5.8768   29.9960 H   0  0  0  0  0  0  0  0  0  0  0  0
    1.1692   -7.2742   31.3127 H   0  0  0  0  0  0  0  0  0  0  0  0
    1.3231   -6.0956   30.2216 H   0  0  0  0  0  0  0  0  0  0  0  0
   -0.7047   -7.1078   33.4688 H   0  0  0  0  0  0  0  0  0  0  0  0
    0.7008   -3.4755   35.2198 H   0  0  0  0  0  0  0  0  0  0  0  0
    0.7122   -2.3858   33.0783 H   0  0  0  0  0  0  0  0  0  0  0  0
    1.0055   -3.2699   28.7347 H   0  0  0  0  0  0  0  0  0  0  0  0
    0.3026   -4.6692   29.0814 H   0  0  0  0  0  0  0  0  0  0  0  0
    1.8083   -1.8903   30.9703 H   0  0  0  0  0  0  0  0  0  0  0  0
    0.2621   -1.1889   31.4198 H   0  0  0  0  0  0  0  0  0  0  0  0
    1.4807   -1.2322   28.7680 H   0  0  0  0  0  0  0  0  0  0  0  0
   -0.4215   -1.2657   27.7686 H   0  0  0  0  0  0  0  0  0  0  0  0
   -0.8557    0.1756   28.6754 H   0  0  0  0  0  0  0  0  0  0  0  0
   -1.9156   -1.1454   30.4297 H   0  0  0  0  0  0  0  0  0  0  0  0
   -2.5100   -1.7147   28.8847 H   0  0  0  0  0  0  0  0  0  0  0  0
   -1.2975   -3.6031   29.0212 H   0  0  0  0  0  0  0  0  0  0  0  0
  1  2  1  0
  2  3  1  0
  2  4  1  0
  4  5  2  0
  5  6  1  0
  6  7  1  0
  7  8  2  0
  7  9  2  0
  7 10  1  0
  6 11  2  0
 11 12  1  0
 12 13  2  0
 13 14  1  0
 14 15  1  0
 14 16  1  0
 16 17  1  0
 17 18  1  0
 18 19  1  0
 19 20  1  0
 13  4  1  0
 20 14  1  0
  1 21  1  0
  1 22  1  0
  2 23  1  0
  3 24  1  0
  3 25  1  0
  5 26  1  0
 11 27  1  0
 12 28  1  0
 15 29  1  0
 15 30  1  0
 16 31  1  0
 16 32  1  0
 17 33  1  0
 18 34  1  0
 18 35  1  0
 19 36  1  0
 19 37  1  0
 20 38  1  0
M  END
>  <Energy>  (648) 
11.399716802307619

>  <compound_id>  (648) 
2759

>  <target_id>  (648) 
1

>  <reference_id>  (648) 
183

>  <inspiration_ids>  (648) 
[183, 13]

>  <energy_score>  (648) 
-69.78424234490203

>  <distance_score>  (648) 
2.2809020220887817

>  <path>  (648) 
/opt/xchem-fragalysis-2/maxwin/BulkDock/SCRATCH/505736/C2759-P183/C2759-P183.minimised.mol

>  <scratch_subdir>  (648) 
/opt/xchem-fragalysis-2/maxwin/BulkDock/SCRATCH/505736/C2759-P183

>  <fragmenstein_runtime>  (648) 
14.929974555969238

>  <fragmenstein_outcome>  (648) 
too moved

>  <fragmenstein_mode>  (648) 
expansion

>  <fragmenstein_error>  (648) 


$$$$
C2759-P13
     RDKit          3D

 38 39  0  0  0  0  0  0  0  0999 V2000
   -1.3070   -7.5922   31.0671 N   0  0  0  0  0  0  0  0  0  0  0  0
   -0.0983   -6.8508   31.2868 C   0  0  0  0  0  0  0  0  0  0  0  0
    0.4179   -6.6504   29.9878 N   0  0  0  0  0  0  0  0  0  0  0  0
   -0.1880   -5.6417   32.1993 C   0  0  0  0  0  0  0  0  0  0  0  0
   -0.1903   -6.1138   33.5654 C   0  0  0  0  0  0  0  0  0  0  0  0
   -0.0729   -5.2645   34.6499 C   0  0  0  0  0  0  0  0  0  0  0  0
    0.0017   -5.9293   36.2924 S   0  0  0  0  0  0  0  0  0  0  0  0
    1.3488   -5.7309   36.7868 O   0  0  0  0  0  0  0  0  0  0  0  0
   -1.1697   -5.4793   37.0111 O   0  0  0  0  0  0  0  0  0  0  0  0
   -0.1608   -7.5109   36.1733 F   0  0  0  0  0  0  0  0  0  0  0  0
    0.0006   -3.9037   34.4215 C   0  0  0  0  0  0  0  0  0  0  0  0
   -0.0671   -3.4054   33.1010 C   0  0  0  0  0  0  0  0  0  0  0  0
   -0.1576   -4.2169   31.9299 C   0  0  0  0  0  0  0  0  0  0  0  0
   -0.2508   -3.3596   30.5672 C   0  0  0  0  0  0  0  0  0  0  0  0
   -0.3100   -4.1826   29.3813 N   0  0  0  0  0  0  0  0  0  0  0  0
    0.9574   -2.3125   30.3535 C   0  0  0  0  0  0  0  0  0  0  0  0
    0.9048   -1.4628   29.1268 N   0  0  0  0  0  0  0  0  0  0  0  0
   -0.4556   -0.9527   28.8741 C   0  0  0  0  0  0  0  0  0  0  0  0
   -1.4457   -1.2376   30.0180 C   0  0  0  0  0  0  0  0  0  0  0  0
   -1.5364   -2.6464   30.4766 N   0  0  0  0  0  0  0  0  0  0  0  0
   -0.9850   -8.3430   30.4570 H   0  0  0  0  0  0  0  0  0  0  0  0
   -1.6007   -8.0254   31.9386 H   0  0  0  0  0  0  0  0  0  0  0  0
    0.6204   -7.5342   31.7531 H   0  0  0  0  0  0  0  0  0  0  0  0
    1.2616   -6.0937   30.0699 H   0  0  0  0  0  0  0  0  0  0  0  0
   -0.2624   -6.0155   29.5396 H   0  0  0  0  0  0  0  0  0  0  0  0
   -0.2442   -7.1871   33.7588 H   0  0  0  0  0  0  0  0  0  0  0  0
    0.0673   -3.2054   35.2538 H   0  0  0  0  0  0  0  0  0  0  0  0
   -0.0847   -2.3189   32.9970 H   0  0  0  0  0  0  0  0  0  0  0  0
    0.6390   -4.3404   29.0493 H   0  0  0  0  0  0  0  0  0  0  0  0
   -0.7287   -3.6424   28.6216 H   0  0  0  0  0  0  0  0  0  0  0  0
    1.9068   -2.8638   30.3405 H   0  0  0  0  0  0  0  0  0  0  0  0
    1.0248   -1.6343   31.2123 H   0  0  0  0  0  0  0  0  0  0  0  0
    1.1800   -2.0153   28.3162 H   0  0  0  0  0  0  0  0  0  0  0  0
   -0.8391   -1.4074   27.9532 H   0  0  0  0  0  0  0  0  0  0  0  0
   -0.3984    0.1263   28.6955 H   0  0  0  0  0  0  0  0  0  0  0  0
   -1.1751   -0.6230   30.8863 H   0  0  0  0  0  0  0  0  0  0  0  0
   -2.4401   -0.8971   29.7196 H   0  0  0  0  0  0  0  0  0  0  0  0
   -2.1092   -3.1701   29.8187 H   0  0  0  0  0  0  0  0  0  0  0  0
  1  2  1  0
  2  3  1  0
  2  4  1  0
  4  5  2  0
  5  6  1  0
  6  7  1  0
  7  8  2  0
  7  9  2  0
  7 10  1  0
  6 11  2  0
 11 12  1  0
 12 13  2  0
 13 14  1  0
 14 15  1  0
 14 16  1  0
 16 17  1  0
 17 18  1  0
 18 19  1  0
 19 20  1  0
 13  4  1  0
 20 14  1  0
  1 21  1  0
  1 22  1  0
  2 23  1  0
  3 24  1  0
  3 25  1  0
  5 26  1  0
 11 27  1  0
 12 28  1  0
 15 29  1  0
 15 30  1  0
 16 31  1  0
 16 32  1  0
 17 33  1  0
 18 34  1  0
 18 35  1  0
 19 36  1  0
 19 37  1  0
 20 38  1  0
M  END
>  <Energy>  (649) 
21.555561406577024

>  <compound_id>  (649) 
2759

>  <target_id>  (649) 
1

>  <reference_id>  (649) 
13

>  <inspiration_ids>  (649) 
[183, 13]

>  <energy_score>  (649) 
-59.628397740633204

>  <distance_score>  (649) 
2.3733941551784974

>  <path>  (649) 
/opt/xchem-fragalysis-2/maxwin/BulkDock/SCRATCH/505736/C2759-P13/C2759-P13.minimised.mol

>  <scratch_subdir>  (649) 
/opt/xchem-fragalysis-2/maxwin/BulkDock/SCRATCH/505736/C2759-P13

>  <fragmenstein_runtime>  (649) 
13.812052011489868

>  <fragmenstein_outcome>  (649) 
too moved

>  <fragmenstein_mode>  (649) 
expansion

>  <fragmenstein_error>  (649) 


$$$$
C2760-P183
     RDKit          3D

 39 41  0  0  0  0  0  0  0  0999 V2000
   -1.9212   -8.2703   33.3283 N   0  0  0  0  0  0  0  0  0  0  0  0
   -1.6559   -8.3922   31.9425 C   0  0  0  0  0  0  0  0  0  0  0  0
   -0.3868   -7.8189   31.5955 N   0  0  0  0  0  0  0  0  0  0  0  0
   -0.3826   -6.4088   31.8124 C   0  0  0  0  0  0  0  0  0  0  0  0
    0.3444   -5.7800   30.7080 N   0  0  0  0  0  0  0  0  0  0  0  0
    0.7945   -4.4810   31.2867 C   0  0  0  0  0  0  0  0  0  0  0  0
   -0.2973   -3.3475   31.1465 C   0  0  0  0  0  0  0  0  0  0  0  0
   -0.5048   -2.8535   29.7738 N   0  0  0  0  0  0  0  0  0  0  0  0
    0.8001   -2.4321   29.2425 C   0  0  0  0  0  0  0  0  0  0  0  0
    1.8538   -3.5600   29.2975 C   0  0  0  0  0  0  0  0  0  0  0  0
    2.0480   -4.1330   30.6366 N   0  0  0  0  0  0  0  0  0  0  0  0
    0.9920   -4.7866   32.7529 C   0  0  0  0  0  0  0  0  0  0  0  0
    1.5993   -4.0466   33.7560 C   0  0  0  0  0  0  0  0  0  0  0  0
    1.5055   -4.5048   35.0754 C   0  0  0  0  0  0  0  0  0  0  0  0
    0.8610   -5.7186   35.3442 C   0  0  0  0  0  0  0  0  0  0  0  0
    0.5802   -6.2711   36.9986 S   0  0  0  0  0  0  0  0  0  0  0  0
    1.7821   -5.9967   37.7558 O   0  0  0  0  0  0  0  0  0  0  0  0
   -0.7308   -5.7978   37.3897 O   0  0  0  0  0  0  0  0  0  0  0  0
    0.4699   -7.8561   36.9301 F   0  0  0  0  0  0  0  0  0  0  0  0
    0.3603   -6.5080   34.3225 C   0  0  0  0  0  0  0  0  0  0  0  0
    0.3513   -5.9864   33.0426 C   0  0  0  0  0  0  0  0  0  0  0  0
   -1.4093   -8.9409   33.9032 H   0  0  0  0  0  0  0  0  0  0  0  0
   -1.8267   -7.3371   33.6916 H   0  0  0  0  0  0  0  0  0  0  0  0
   -1.6381   -9.4402   31.6529 H   0  0  0  0  0  0  0  0  0  0  0  0
   -2.4596   -7.9158   31.3838 H   0  0  0  0  0  0  0  0  0  0  0  0
   -0.2578   -7.9687   30.5982 H   0  0  0  0  0  0  0  0  0  0  0  0
   -1.3871   -5.9763   31.8291 H   0  0  0  0  0  0  0  0  0  0  0  0
    1.1883   -6.3310   30.6122 H   0  0  0  0  0  0  0  0  0  0  0  0
   -0.0228   -2.4907   31.7778 H   0  0  0  0  0  0  0  0  0  0  0  0
   -1.2650   -3.6902   31.5322 H   0  0  0  0  0  0  0  0  0  0  0  0
   -0.8466   -3.6241   29.1947 H   0  0  0  0  0  0  0  0  0  0  0  0
    0.6704   -2.1012   28.2083 H   0  0  0  0  0  0  0  0  0  0  0  0
    1.1586   -1.5602   29.8040 H   0  0  0  0  0  0  0  0  0  0  0  0
    2.8134   -3.1612   28.9505 H   0  0  0  0  0  0  0  0  0  0  0  0
    1.5736   -4.3543   28.5964 H   0  0  0  0  0  0  0  0  0  0  0  0
    2.6802   -4.9205   30.6100 H   0  0  0  0  0  0  0  0  0  0  0  0
    2.0835   -3.0992   33.5321 H   0  0  0  0  0  0  0  0  0  0  0  0
    1.9109   -3.9044   35.8880 H   0  0  0  0  0  0  0  0  0  0  0  0
   -0.0611   -7.4712   34.5688 H   0  0  0  0  0  0  0  0  0  0  0  0
  1  2  1  0
  2  3  1  0
  3  4  1  0
  4  5  1  0
  5  6  1  0
  6  7  1  0
  7  8  1  0
  8  9  1  0
  9 10  1  0
 10 11  1  0
  6 12  1  0
 12 13  2  0
 13 14  1  0
 14 15  2  0
 15 16  1  0
 16 17  2  0
 16 18  2  0
 16 19  1  0
 15 20  1  0
 20 21  2  0
 21  4  1  0
 11  6  1  0
 21 12  1  0
  1 22  1  0
  1 23  1  0
  2 24  1  0
  2 25  1  0
  3 26  1  0
  4 27  1  0
  5 28  1  0
  7 29  1  0
  7 30  1  0
  8 31  1  0
  9 32  1  0
  9 33  1  0
 10 34  1  0
 10 35  1  0
 11 36  1  0
 13 37  1  0
 14 38  1  0
 20 39  1  0
M  END
>  <Energy>  (650) 
-17.280346189711356

>  <compound_id>  (650) 
2760

>  <target_id>  (650) 
1

>  <reference_id>  (650) 
183

>  <inspiration_ids>  (650) 
[183, 25]

>  <energy_score>  (650) 
-37.97899313701515

>  <distance_score>  (650) 
1.1065792847808245

>  <path>  (650) 
/opt/xchem-fragalysis-2/maxwin/BulkDock/SCRATCH/505736/C2760-P183/C2760-P183.minimised.mol

>  <scratch_subdir>  (650) 
/opt/xchem-fragalysis-2/maxwin/BulkDock/SCRATCH/505736/C2760-P183

>  <fragmenstein_runtime>  (650) 
1.4492676258087158

>  <fragmenstein_outcome>  (650) 
too moved

>  <fragmenstein_mode>  (650) 
expansion

>  <fragmenstein_error>  (650) 


$$$$
C2760-P25
     RDKit          3D

 39 41  0  0  0  0  0  0  0  0999 V2000
   -1.8374   -8.2737   33.5477 N   0  0  0  0  0  0  0  0  0  0  0  0
   -1.7584   -8.3436   32.1238 C   0  0  0  0  0  0  0  0  0  0  0  0
   -0.6467   -7.5969   31.6116 N   0  0  0  0  0  0  0  0  0  0  0  0
   -0.6217   -6.2234   31.9989 C   0  0  0  0  0  0  0  0  0  0  0  0
   -0.1054   -5.4500   30.8642 N   0  0  0  0  0  0  0  0  0  0  0  0
    0.4432   -4.2090   31.4666 C   0  0  0  0  0  0  0  0  0  0  0  0
   -0.6560   -3.0796   31.5457 C   0  0  0  0  0  0  0  0  0  0  0  0
   -1.1025   -2.5743   30.2294 N   0  0  0  0  0  0  0  0  0  0  0  0
    0.0862   -2.0998   29.4972 C   0  0  0  0  0  0  0  0  0  0  0  0
    1.1757   -3.1874   29.3764 C   0  0  0  0  0  0  0  0  0  0  0  0
    1.5773   -3.7837   30.6623 N   0  0  0  0  0  0  0  0  0  0  0  0
    0.8514   -4.6330   32.8578 C   0  0  0  0  0  0  0  0  0  0  0  0
    1.5546   -3.9423   33.8341 C   0  0  0  0  0  0  0  0  0  0  0  0
    1.5520   -4.4434   35.1426 C   0  0  0  0  0  0  0  0  0  0  0  0
    0.8701   -5.6320   35.4249 C   0  0  0  0  0  0  0  0  0  0  0  0
    0.6190   -6.2111   37.0713 S   0  0  0  0  0  0  0  0  0  0  0  0
    1.8385   -5.9740   37.8113 O   0  0  0  0  0  0  0  0  0  0  0  0
   -0.6805   -5.7441   37.5063 O   0  0  0  0  0  0  0  0  0  0  0  0
    0.4881   -7.7972   36.9712 F   0  0  0  0  0  0  0  0  0  0  0  0
    0.2753   -6.3749   34.4229 C   0  0  0  0  0  0  0  0  0  0  0  0
    0.2390   -5.8500   33.1501 C   0  0  0  0  0  0  0  0  0  0  0  0
   -1.1842   -8.9413   33.9560 H   0  0  0  0  0  0  0  0  0  0  0  0
   -2.7172   -8.6980   33.8304 H   0  0  0  0  0  0  0  0  0  0  0  0
   -1.6379   -9.3792   31.8134 H   0  0  0  0  0  0  0  0  0  0  0  0
   -2.6883   -8.0045   31.6853 H   0  0  0  0  0  0  0  0  0  0  0  0
   -0.7300   -7.5981   30.5975 H   0  0  0  0  0  0  0  0  0  0  0  0
   -1.6032   -5.8480   32.2176 H   0  0  0  0  0  0  0  0  0  0  0  0
    0.7073   -5.9368   30.5247 H   0  0  0  0  0  0  0  0  0  0  0  0
   -0.2797   -2.2321   32.1352 H   0  0  0  0  0  0  0  0  0  0  0  0
   -1.5400   -3.4393   32.0850 H   0  0  0  0  0  0  0  0  0  0  0  0
   -1.4628   -3.3651   29.6869 H   0  0  0  0  0  0  0  0  0  0  0  0
   -0.2212   -1.7811   28.4951 H   0  0  0  0  0  0  0  0  0  0  0  0
    0.4943   -1.2144   30.0000 H   0  0  0  0  0  0  0  0  0  0  0  0
    2.0630   -2.7464   28.9088 H   0  0  0  0  0  0  0  0  0  0  0  0
    0.8261   -3.9770   28.7011 H   0  0  0  0  0  0  0  0  0  0  0  0
    2.2307   -4.5365   30.5116 H   0  0  0  0  0  0  0  0  0  0  0  0
    2.0202   -2.9857   33.6098 H   0  0  0  0  0  0  0  0  0  0  0  0
    2.0255   -3.8757   35.9414 H   0  0  0  0  0  0  0  0  0  0  0  0
   -0.2494   -7.2720   34.6966 H   0  0  0  0  0  0  0  0  0  0  0  0
  1  2  1  0
  2  3  1  0
  3  4  1  0
  4  5  1  0
  5  6  1  0
  6  7  1  0
  7  8  1  0
  8  9  1  0
  9 10  1  0
 10 11  1  0
  6 12  1  0
 12 13  2  0
 13 14  1  0
 14 15  2  0
 15 16  1  0
 16 17  2  0
 16 18  2  0
 16 19  1  0
 15 20  1  0
 20 21  2  0
 21  4  1  0
 11  6  1  0
 21 12  1  0
  1 22  1  0
  1 23  1  0
  2 24  1  0
  2 25  1  0
  3 26  1  0
  4 27  1  0
  5 28  1  0
  7 29  1  0
  7 30  1  0
  8 31  1  0
  9 32  1  0
  9 33  1  0
 10 34  1  0
 10 35  1  0
 11 36  1  0
 13 37  1  0
 14 38  1  0
 20 39  1  0
M  END
>  <Energy>  (651) 
-19.780243483449976

>  <compound_id>  (651) 
2760

>  <target_id>  (651) 
1

>  <reference_id>  (651) 
25

>  <inspiration_ids>  (651) 
[183, 25]

>  <energy_score>  (651) 
-40.47889043075571

>  <distance_score>  (651) 
1.263556642086364

>  <path>  (651) 
/opt/xchem-fragalysis-2/maxwin/BulkDock/SCRATCH/505736/C2760-P25/C2760-P25.minimised.mol

>  <scratch_subdir>  (651) 
/opt/xchem-fragalysis-2/maxwin/BulkDock/SCRATCH/505736/C2760-P25

>  <fragmenstein_runtime>  (651) 
1.5180628299713135

>  <fragmenstein_outcome>  (651) 
too moved

>  <fragmenstein_mode>  (651) 
expansion

>  <fragmenstein_error>  (651) 


$$$$
C2762-P183
     RDKit          3D

 34 36  0  0  0  0  0  0  0  0999 V2000
   -0.8424   -8.7627   31.2245 C   0  0  0  0  0  0  0  0  0  0  0  0
   -1.6583   -7.5760   31.2503 N   0  0  0  0  0  0  0  0  0  0  0  0
   -0.8522   -6.3881   31.4130 C   0  0  0  0  0  0  0  0  0  0  0  0
   -0.0108   -6.2324   30.2312 N   0  0  0  0  0  0  0  0  0  0  0  0
    1.1353   -5.4248   30.6450 C   0  0  0  0  0  0  0  0  0  0  0  0
    1.2770   -5.7348   32.0989 C   0  0  0  0  0  0  0  0  0  0  0  0
    2.3417   -5.4834   32.9340 C   0  0  0  0  0  0  0  0  0  0  0  0
    2.2080   -5.8415   34.2666 C   0  0  0  0  0  0  0  0  0  0  0  0
    0.9826   -6.3511   34.7430 C   0  0  0  0  0  0  0  0  0  0  0  0
    0.7296   -6.3308   36.4980 S   0  0  0  0  0  0  0  0  0  0  0  0
    1.8961   -6.9525   37.0891 O   0  0  0  0  0  0  0  0  0  0  0  0
   -0.4791   -7.3155   36.7951 F   0  0  0  0  0  0  0  0  0  0  0  0
    0.2345   -4.8967   36.7715 N   0  0  0  0  0  0  0  0  0  0  0  0
    1.0798   -3.7870   36.3634 C   0  0  0  0  0  0  0  0  0  0  0  0
    2.3728   -3.4418   36.7924 C   0  0  0  0  0  0  0  0  0  0  0  0
    2.8502   -2.3913   36.1163 N   0  0  0  0  0  0  0  0  0  0  0  0
    1.8221   -2.0479   35.3128 N   0  0  0  0  0  0  0  0  0  0  0  0
    0.7471   -2.8795   35.3997 C   0  0  0  0  0  0  0  0  0  0  0  0
   -0.0914   -6.6240   33.9019 C   0  0  0  0  0  0  0  0  0  0  0  0
    0.0922   -6.3200   32.5670 C   0  0  0  0  0  0  0  0  0  0  0  0
   -1.4516   -9.6616   31.2310 H   0  0  0  0  0  0  0  0  0  0  0  0
   -0.2565   -8.7899   32.1318 H   0  0  0  0  0  0  0  0  0  0  0  0
   -0.2169   -8.7967   30.3294 H   0  0  0  0  0  0  0  0  0  0  0  0
   -2.2893   -7.6498   32.0452 H   0  0  0  0  0  0  0  0  0  0  0  0
   -1.4824   -5.5025   31.5170 H   0  0  0  0  0  0  0  0  0  0  0  0
   -0.5270   -5.8002   29.4700 H   0  0  0  0  0  0  0  0  0  0  0  0
    0.9321   -4.3570   30.5080 H   0  0  0  0  0  0  0  0  0  0  0  0
    2.0259   -5.7065   30.0772 H   0  0  0  0  0  0  0  0  0  0  0  0
    3.2509   -5.0126   32.5747 H   0  0  0  0  0  0  0  0  0  0  0  0
    3.0259   -5.6371   34.9559 H   0  0  0  0  0  0  0  0  0  0  0  0
    2.9854   -3.9178   37.5463 H   0  0  0  0  0  0  0  0  0  0  0  0
    1.9324   -1.2324   34.7185 H   0  0  0  0  0  0  0  0  0  0  0  0
   -0.1390   -2.7479   34.7971 H   0  0  0  0  0  0  0  0  0  0  0  0
   -1.0402   -6.9872   34.2817 H   0  0  0  0  0  0  0  0  0  0  0  0
  1  2  1  0
  2  3  1  0
  3  4  1  0
  4  5  1  0
  5  6  1  0
  6  7  2  0
  7  8  1  0
  8  9  2  0
  9 10  1  0
 10 11  2  0
 10 12  1  0
 10 13  2  0
 13 14  1  0
 14 15  1  0
 15 16  2  0
 16 17  1  0
 17 18  1  0
  9 19  1  0
 19 20  2  0
 20  3  1  0
 20  6  1  0
 18 14  2  0
  1 21  1  0
  1 22  1  0
  1 23  1  0
  2 24  1  0
  3 25  1  0
  4 26  1  0
  5 27  1  0
  5 28  1  0
  7 29  1  0
  8 30  1  0
 15 31  1  0
 17 32  1  0
 18 33  1  0
 19 34  1  0
M  END
>  <Energy>  (652) 
-18.262205200840782

>  <compound_id>  (652) 
2762

>  <target_id>  (652) 
1

>  <reference_id>  (652) 
183

>  <inspiration_ids>  (652) 
[183, 41]

>  <energy_score>  (652) 
-34.20802331921937

>  <distance_score>  (652) 
1.4370681005223842

>  <path>  (652) 
/opt/xchem-fragalysis-2/maxwin/BulkDock/SCRATCH/505736/C2762-P183/C2762-P183.minimised.mol

>  <scratch_subdir>  (652) 
/opt/xchem-fragalysis-2/maxwin/BulkDock/SCRATCH/505736/C2762-P183

>  <fragmenstein_runtime>  (652) 
3.4076099395751953

>  <fragmenstein_outcome>  (652) 
too moved

>  <fragmenstein_mode>  (652) 
expansion

>  <fragmenstein_error>  (652) 


$$$$
C2762-P41
     RDKit          3D

 34 36  0  0  0  0  0  0  0  0999 V2000
   -1.7872   -8.4799   31.9843 C   0  0  0  0  0  0  0  0  0  0  0  0
   -0.7850   -7.8912   31.1511 N   0  0  0  0  0  0  0  0  0  0  0  0
   -0.5484   -6.5106   31.3986 C   0  0  0  0  0  0  0  0  0  0  0  0
    0.2047   -6.1057   30.2185 N   0  0  0  0  0  0  0  0  0  0  0  0
    1.3927   -5.3706   30.6670 C   0  0  0  0  0  0  0  0  0  0  0  0
    1.5101   -5.6628   32.1214 C   0  0  0  0  0  0  0  0  0  0  0  0
    2.5481   -5.3765   32.9827 C   0  0  0  0  0  0  0  0  0  0  0  0
    2.3916   -5.7117   34.3223 C   0  0  0  0  0  0  0  0  0  0  0  0
    1.1682   -6.2373   34.7744 C   0  0  0  0  0  0  0  0  0  0  0  0
    0.8370   -6.2295   36.5142 S   0  0  0  0  0  0  0  0  0  0  0  0
    1.9872   -6.8187   37.1644 O   0  0  0  0  0  0  0  0  0  0  0  0
   -0.3513   -7.2603   36.7533 F   0  0  0  0  0  0  0  0  0  0  0  0
    0.2700   -4.8194   36.7648 N   0  0  0  0  0  0  0  0  0  0  0  0
    1.0854   -3.6837   36.3662 C   0  0  0  0  0  0  0  0  0  0  0  0
    2.3575   -3.2953   36.8198 C   0  0  0  0  0  0  0  0  0  0  0  0
    2.8206   -2.2434   36.1369 N   0  0  0  0  0  0  0  0  0  0  0  0
    1.8041   -1.9438   35.3021 N   0  0  0  0  0  0  0  0  0  0  0  0
    0.7498   -2.8028   35.3793 C   0  0  0  0  0  0  0  0  0  0  0  0
    0.1311   -6.5412   33.9050 C   0  0  0  0  0  0  0  0  0  0  0  0
    0.3432   -6.2793   32.5647 C   0  0  0  0  0  0  0  0  0  0  0  0
   -2.7771   -8.0809   31.7843 H   0  0  0  0  0  0  0  0  0  0  0  0
   -1.5854   -8.4086   33.0500 H   0  0  0  0  0  0  0  0  0  0  0  0
   -1.7892   -9.5319   31.7374 H   0  0  0  0  0  0  0  0  0  0  0  0
   -0.9303   -8.0171   30.1576 H   0  0  0  0  0  0  0  0  0  0  0  0
   -1.4437   -5.8996   31.4910 H   0  0  0  0  0  0  0  0  0  0  0  0
   -0.3601   -5.5091   29.6175 H   0  0  0  0  0  0  0  0  0  0  0  0
    1.2549   -4.2944   30.5154 H   0  0  0  0  0  0  0  0  0  0  0  0
    2.2742   -5.7050   30.1132 H   0  0  0  0  0  0  0  0  0  0  0  0
    3.4586   -4.8985   32.6346 H   0  0  0  0  0  0  0  0  0  0  0  0
    3.1888   -5.4801   35.0267 H   0  0  0  0  0  0  0  0  0  0  0  0
    2.9668   -3.7417   37.5944 H   0  0  0  0  0  0  0  0  0  0  0  0
    1.9079   -1.1373   34.6944 H   0  0  0  0  0  0  0  0  0  0  0  0
   -0.1229   -2.7075   34.7511 H   0  0  0  0  0  0  0  0  0  0  0  0
   -0.8197   -6.9027   34.2771 H   0  0  0  0  0  0  0  0  0  0  0  0
  1  2  1  0
  2  3  1  0
  3  4  1  0
  4  5  1  0
  5  6  1  0
  6  7  2  0
  7  8  1  0
  8  9  2  0
  9 10  1  0
 10 11  2  0
 10 12  1  0
 10 13  2  0
 13 14  1  0
 14 15  1  0
 15 16  2  0
 16 17  1  0
 17 18  1  0
  9 19  1  0
 19 20  2  0
 20  3  1  0
 20  6  1  0
 18 14  2  0
  1 21  1  0
  1 22  1  0
  1 23  1  0
  2 24  1  0
  3 25  1  0
  4 26  1  0
  5 27  1  0
  5 28  1  0
  7 29  1  0
  8 30  1  0
 15 31  1  0
 17 32  1  0
 18 33  1  0
 19 34  1  0
M  END
>  <Energy>  (653) 
-20.213910152890648

>  <compound_id>  (653) 
2762

>  <target_id>  (653) 
1

>  <reference_id>  (653) 
41

>  <inspiration_ids>  (653) 
[183, 41]

>  <energy_score>  (653) 
-36.15972827126825

>  <distance_score>  (653) 
1.419673876510825

>  <path>  (653) 
/opt/xchem-fragalysis-2/maxwin/BulkDock/SCRATCH/505736/C2762-P41/C2762-P41.minimised.mol

>  <scratch_subdir>  (653) 
/opt/xchem-fragalysis-2/maxwin/BulkDock/SCRATCH/505736/C2762-P41

>  <fragmenstein_runtime>  (653) 
2.874939203262329

>  <fragmenstein_outcome>  (653) 
too moved

>  <fragmenstein_mode>  (653) 
expansion

>  <fragmenstein_error>  (653) 


$$$$
C2763-P183
     RDKit          3D

 42 45  0  0  0  0  0  0  0  0999 V2000
    5.9850   -2.7050   33.7621 C   0  0  0  0  0  0  0  0  0  0  0  0
    5.6389   -3.8261   34.4113 C   0  0  0  0  0  0  0  0  0  0  0  0
    4.2810   -4.4689   34.4889 C   0  0  0  0  0  0  0  0  0  0  0  0
    3.2100   -3.6916   33.8933 N   0  0  0  0  0  0  0  0  0  0  0  0
    2.5105   -2.6307   34.4455 C   0  0  0  0  0  0  0  0  0  0  0  0
    2.0657   -2.6109   35.8404 C   0  0  0  0  0  0  0  0  0  0  0  0
    0.7154   -2.8816   36.1188 C   0  0  0  0  0  0  0  0  0  0  0  0
    0.2990   -3.1160   37.4252 C   0  0  0  0  0  0  0  0  0  0  0  0
    1.2486   -3.0481   38.4263 C   0  0  0  0  0  0  0  0  0  0  0  0
    2.5510   -2.7518   38.2051 N   0  0  0  0  0  0  0  0  0  0  0  0
    2.9278   -2.5318   36.9214 C   0  0  0  0  0  0  0  0  0  0  0  0
    1.8856   -2.0737   33.4142 N   0  0  0  0  0  0  0  0  0  0  0  0
    1.8078   -3.0396   32.4181 N   0  0  0  0  0  0  0  0  0  0  0  0
    2.2840   -4.1466   32.9654 C   0  0  0  0  0  0  0  0  0  0  0  0
    1.4843   -5.3612   33.1613 C   0  0  0  0  0  0  0  0  0  0  0  0
    1.2770   -5.8057   34.4761 C   0  0  0  0  0  0  0  0  0  0  0  0
    0.2692   -6.7147   34.8073 C   0  0  0  0  0  0  0  0  0  0  0  0
   -0.0222   -6.9543   36.5303 S   0  0  0  0  0  0  0  0  0  0  0  0
    1.2660   -6.8710   37.1916 O   0  0  0  0  0  0  0  0  0  0  0  0
   -1.1289   -6.0934   36.8877 O   0  0  0  0  0  0  0  0  0  0  0  0
   -0.5125   -8.4394   36.7040 F   0  0  0  0  0  0  0  0  0  0  0  0
   -0.4937   -7.3310   33.8283 C   0  0  0  0  0  0  0  0  0  0  0  0
   -0.2292   -6.9385   32.5275 C   0  0  0  0  0  0  0  0  0  0  0  0
    0.7026   -5.9435   32.1855 C   0  0  0  0  0  0  0  0  0  0  0  0
    0.6000   -5.6320   30.7318 C   0  0  0  0  0  0  0  0  0  0  0  0
   -0.3129   -6.6511   30.2708 N   0  0  0  0  0  0  0  0  0  0  0  0
   -0.8711   -7.3852   31.2902 C   0  0  0  0  0  0  0  0  0  0  0  0
   -1.7354   -8.2299   31.1935 O   0  0  0  0  0  0  0  0  0  0  0  0
    5.2799   -2.1111   33.1860 H   0  0  0  0  0  0  0  0  0  0  0  0
    7.0105   -2.3447   33.7898 H   0  0  0  0  0  0  0  0  0  0  0  0
    6.4223   -4.3515   34.9576 H   0  0  0  0  0  0  0  0  0  0  0  0
    4.0290   -4.6672   35.5343 H   0  0  0  0  0  0  0  0  0  0  0  0
    4.3248   -5.4337   33.9714 H   0  0  0  0  0  0  0  0  0  0  0  0
   -0.0118   -2.9473   35.3100 H   0  0  0  0  0  0  0  0  0  0  0  0
   -0.7356   -3.3514   37.6523 H   0  0  0  0  0  0  0  0  0  0  0  0
    0.9821   -3.2281   39.4643 H   0  0  0  0  0  0  0  0  0  0  0  0
    3.9848   -2.3155   36.7930 H   0  0  0  0  0  0  0  0  0  0  0  0
    1.8184   -5.3603   35.3070 H   0  0  0  0  0  0  0  0  0  0  0  0
   -1.2725   -8.0520   34.0541 H   0  0  0  0  0  0  0  0  0  0  0  0
    1.5506   -5.7428   30.2050 H   0  0  0  0  0  0  0  0  0  0  0  0
    0.1518   -4.6519   30.5482 H   0  0  0  0  0  0  0  0  0  0  0  0
   -0.7267   -6.6552   29.3442 H   0  0  0  0  0  0  0  0  0  0  0  0
  1  2  2  0
  2  3  1  0
  3  4  1  0
  4  5  1  0
  5  6  1  0
  6  7  2  0
  7  8  1  0
  8  9  2  0
  9 10  1  0
 10 11  2  0
  5 12  2  0
 12 13  1  0
 13 14  2  0
 14 15  1  0
 15 16  2  0
 16 17  1  0
 17 18  1  0
 18 19  2  0
 18 20  2  0
 18 21  1  0
 17 22  2  0
 22 23  1  0
 23 24  2  0
 24 25  1  0
 25 26  1  0
 26 27  1  0
 27 28  2  0
 14  4  1  0
 24 15  1  0
 11  6  1  0
 27 23  1  0
  1 29  1  0
  1 30  1  0
  2 31  1  0
  3 32  1  0
  3 33  1  0
  7 34  1  0
  8 35  1  0
  9 36  1  0
 11 37  1  0
 16 38  1  0
 22 39  1  0
 25 40  1  0
 25 41  1  0
 26 42  1  0
M  END
>  <Energy>  (654) 
100.59010838809962

>  <compound_id>  (654) 
2763

>  <target_id>  (654) 
1

>  <reference_id>  (654) 
183

>  <inspiration_ids>  (654) 
[183, 56]

>  <energy_score>  (654) 
-1.0064385778373577

>  <distance_score>  (654) 
1.818104656561058

>  <path>  (654) 
/opt/xchem-fragalysis-2/maxwin/BulkDock/SCRATCH/505736/C2763-P183/C2763-P183.minimised.mol

>  <scratch_subdir>  (654) 
/opt/xchem-fragalysis-2/maxwin/BulkDock/SCRATCH/505736/C2763-P183

>  <fragmenstein_runtime>  (654) 
4.093623638153076

>  <fragmenstein_outcome>  (654) 
too moved

>  <fragmenstein_mode>  (654) 
expansion

>  <fragmenstein_error>  (654) 


$$$$
C2763-P56
     RDKit          3D

 42 45  0  0  0  0  0  0  0  0999 V2000
    5.8606   -6.0155   33.4190 C   0  0  0  0  0  0  0  0  0  0  0  0
    5.3844   -4.8114   33.7618 C   0  0  0  0  0  0  0  0  0  0  0  0
    4.1957   -4.5982   34.6578 C   0  0  0  0  0  0  0  0  0  0  0  0
    3.2321   -3.7046   34.0429 N   0  0  0  0  0  0  0  0  0  0  0  0
    2.6490   -2.5796   34.5964 C   0  0  0  0  0  0  0  0  0  0  0  0
    2.1537   -2.5300   35.9725 C   0  0  0  0  0  0  0  0  0  0  0  0
    0.7803   -2.7156   36.1979 C   0  0  0  0  0  0  0  0  0  0  0  0
    0.2936   -2.8619   37.4922 C   0  0  0  0  0  0  0  0  0  0  0  0
    1.1975   -2.7809   38.5340 C   0  0  0  0  0  0  0  0  0  0  0  0
    2.5175   -2.5409   38.3661 N   0  0  0  0  0  0  0  0  0  0  0  0
    2.9663   -2.4361   37.0896 C   0  0  0  0  0  0  0  0  0  0  0  0
    2.1452   -1.9128   33.5649 N   0  0  0  0  0  0  0  0  0  0  0  0
    1.9930   -2.8239   32.5287 N   0  0  0  0  0  0  0  0  0  0  0  0
    2.3275   -4.0010   33.0342 C   0  0  0  0  0  0  0  0  0  0  0  0
    1.4320   -5.1576   33.0710 C   0  0  0  0  0  0  0  0  0  0  0  0
    1.0344   -5.6249   34.3345 C   0  0  0  0  0  0  0  0  0  0  0  0
   -0.0026   -6.5422   34.4814 C   0  0  0  0  0  0  0  0  0  0  0  0
   -0.7333   -6.7196   36.0472 S   0  0  0  0  0  0  0  0  0  0  0  0
   -0.0129   -5.9327   37.0198 O   0  0  0  0  0  0  0  0  0  0  0  0
   -2.1517   -6.5988   35.8400 O   0  0  0  0  0  0  0  0  0  0  0  0
   -0.5358   -8.2220   36.4718 F   0  0  0  0  0  0  0  0  0  0  0  0
   -0.6159   -7.1367   33.3972 C   0  0  0  0  0  0  0  0  0  0  0  0
   -0.2043   -6.6740   32.1737 C   0  0  0  0  0  0  0  0  0  0  0  0
    0.7536   -5.6713   31.9844 C   0  0  0  0  0  0  0  0  0  0  0  0
    0.7985   -5.3101   30.5417 C   0  0  0  0  0  0  0  0  0  0  0  0
   -0.1791   -6.2116   29.9594 N   0  0  0  0  0  0  0  0  0  0  0  0
   -0.7527   -7.0460   30.8853 C   0  0  0  0  0  0  0  0  0  0  0  0
   -1.5840   -7.9178   30.7332 O   0  0  0  0  0  0  0  0  0  0  0  0
    5.3943   -6.9324   33.7709 H   0  0  0  0  0  0  0  0  0  0  0  0
    6.7366   -6.1069   32.7848 H   0  0  0  0  0  0  0  0  0  0  0  0
    5.8917   -3.9196   33.3976 H   0  0  0  0  0  0  0  0  0  0  0  0
    4.5520   -4.1340   35.5797 H   0  0  0  0  0  0  0  0  0  0  0  0
    3.7043   -5.5401   34.9137 H   0  0  0  0  0  0  0  0  0  0  0  0
    0.0901   -2.7803   35.3581 H   0  0  0  0  0  0  0  0  0  0  0  0
   -0.7579   -3.0440   37.6805 H   0  0  0  0  0  0  0  0  0  0  0  0
    0.8757   -2.8980   39.5644 H   0  0  0  0  0  0  0  0  0  0  0  0
    4.0378   -2.2845   37.0031 H   0  0  0  0  0  0  0  0  0  0  0  0
    1.4569   -5.1957   35.2386 H   0  0  0  0  0  0  0  0  0  0  0  0
   -1.4371   -7.8399   33.4825 H   0  0  0  0  0  0  0  0  0  0  0  0
    1.7813   -5.4937   30.1087 H   0  0  0  0  0  0  0  0  0  0  0  0
    0.4726   -4.2834   30.3562 H   0  0  0  0  0  0  0  0  0  0  0  0
   -0.3019   -6.3626   28.9666 H   0  0  0  0  0  0  0  0  0  0  0  0
  1  2  2  0
  2  3  1  0
  3  4  1  0
  4  5  1  0
  5  6  1  0
  6  7  2  0
  7  8  1  0
  8  9  2  0
  9 10  1  0
 10 11  2  0
  5 12  2  0
 12 13  1  0
 13 14  2  0
 14 15  1  0
 15 16  2  0
 16 17  1  0
 17 18  1  0
 18 19  2  0
 18 20  2  0
 18 21  1  0
 17 22  2  0
 22 23  1  0
 23 24  2  0
 24 25  1  0
 25 26  1  0
 26 27  1  0
 27 28  2  0
 14  4  1  0
 24 15  1  0
 11  6  1  0
 27 23  1  0
  1 29  1  0
  1 30  1  0
  2 31  1  0
  3 32  1  0
  3 33  1  0
  7 34  1  0
  8 35  1  0
  9 36  1  0
 11 37  1  0
 16 38  1  0
 22 39  1  0
 25 40  1  0
 25 41  1  0
 26 42  1  0
M  END
>  <Energy>  (655) 
102.33982092498647

>  <compound_id>  (655) 
2763

>  <target_id>  (655) 
1

>  <reference_id>  (655) 
56

>  <inspiration_ids>  (655) 
[183, 56]

>  <energy_score>  (655) 
0.7432739590510948

>  <distance_score>  (655) 
1.6955581440520444

>  <path>  (655) 
/opt/xchem-fragalysis-2/maxwin/BulkDock/SCRATCH/505736/C2763-P56/C2763-P56.minimised.mol

>  <scratch_subdir>  (655) 
/opt/xchem-fragalysis-2/maxwin/BulkDock/SCRATCH/505736/C2763-P56

>  <fragmenstein_runtime>  (655) 
4.151257753372192

>  <fragmenstein_outcome>  (655) 
too moved

>  <fragmenstein_mode>  (655) 
expansion

>  <fragmenstein_error>  (655) 


$$$$
C2763-P183
     RDKit          3D

 42 45  0  0  0  0  0  0  0  0999 V2000
   -4.0345   -2.4000   32.0771 C   0  0  0  0  0  0  0  0  0  0  0  0
   -2.9795   -1.6326   31.7677 C   0  0  0  0  0  0  0  0  0  0  0  0
   -1.9668   -1.0983   32.7366 C   0  0  0  0  0  0  0  0  0  0  0  0
   -2.1971   -1.5286   34.0941 N   0  0  0  0  0  0  0  0  0  0  0  0
   -3.1320   -0.9439   34.9434 C   0  0  0  0  0  0  0  0  0  0  0  0
   -3.9691    0.2161   34.7246 C   0  0  0  0  0  0  0  0  0  0  0  0
   -5.3549    0.0862   34.6695 C   0  0  0  0  0  0  0  0  0  0  0  0
   -6.1443    1.2278   34.6585 C   0  0  0  0  0  0  0  0  0  0  0  0
   -5.5208    2.4656   34.6683 C   0  0  0  0  0  0  0  0  0  0  0  0
   -4.1808    2.6269   34.7080 N   0  0  0  0  0  0  0  0  0  0  0  0
   -3.4395    1.4980   34.7857 C   0  0  0  0  0  0  0  0  0  0  0  0
   -3.1804   -1.6313   36.0532 N   0  0  0  0  0  0  0  0  0  0  0  0
   -2.2443   -2.6037   35.9624 N   0  0  0  0  0  0  0  0  0  0  0  0
   -1.6581   -2.6200   34.7580 C   0  0  0  0  0  0  0  0  0  0  0  0
   -0.7829   -3.8060   34.3713 C   0  0  0  0  0  0  0  0  0  0  0  0
   -0.3524   -4.5297   35.5092 C   0  0  0  0  0  0  0  0  0  0  0  0
   -0.0429   -5.9002   35.4773 C   0  0  0  0  0  0  0  0  0  0  0  0
    0.2917   -6.6908   37.0116 S   0  0  0  0  0  0  0  0  0  0  0  0
    1.7134   -6.5449   37.2437 O   0  0  0  0  0  0  0  0  0  0  0  0
   -0.7098   -6.2376   37.9506 O   0  0  0  0  0  0  0  0  0  0  0  0
    0.0279   -8.2351   36.7953 F   0  0  0  0  0  0  0  0  0  0  0  0
   -0.1180   -6.6345   34.3111 C   0  0  0  0  0  0  0  0  0  0  0  0
   -0.3660   -5.8981   33.1759 C   0  0  0  0  0  0  0  0  0  0  0  0
   -0.6173   -4.4960   33.1581 C   0  0  0  0  0  0  0  0  0  0  0  0
   -0.6669   -4.0969   31.7168 C   0  0  0  0  0  0  0  0  0  0  0  0
   -0.4204   -5.3269   30.9928 N   0  0  0  0  0  0  0  0  0  0  0  0
   -0.4370   -6.4265   31.8092 C   0  0  0  0  0  0  0  0  0  0  0  0
   -0.5299   -7.5917   31.4830 O   0  0  0  0  0  0  0  0  0  0  0  0
   -4.7166   -2.7746   31.3245 H   0  0  0  0  0  0  0  0  0  0  0  0
   -4.2914   -2.6822   33.0933 H   0  0  0  0  0  0  0  0  0  0  0  0
   -2.8083   -1.3778   30.7216 H   0  0  0  0  0  0  0  0  0  0  0  0
   -1.9676   -0.0039   32.7140 H   0  0  0  0  0  0  0  0  0  0  0  0
   -0.9596   -1.4146   32.4509 H   0  0  0  0  0  0  0  0  0  0  0  0
   -5.8218   -0.8951   34.6888 H   0  0  0  0  0  0  0  0  0  0  0  0
   -7.2267    1.1578   34.6370 H   0  0  0  0  0  0  0  0  0  0  0  0
   -6.1037    3.3825   34.6384 H   0  0  0  0  0  0  0  0  0  0  0  0
   -2.3740    1.6648   34.9237 H   0  0  0  0  0  0  0  0  0  0  0  0
   -0.3972   -4.0481   36.4919 H   0  0  0  0  0  0  0  0  0  0  0  0
    0.0320   -7.7061   34.2758 H   0  0  0  0  0  0  0  0  0  0  0  0
    0.1128   -3.3776   31.4560 H   0  0  0  0  0  0  0  0  0  0  0  0
   -1.6475   -3.7490   31.4136 H   0  0  0  0  0  0  0  0  0  0  0  0
   -0.5004   -5.4271   29.9866 H   0  0  0  0  0  0  0  0  0  0  0  0
  1  2  2  0
  2  3  1  0
  3  4  1  0
  4  5  1  0
  5  6  1  0
  6  7  2  0
  7  8  1  0
  8  9  2  0
  9 10  1  0
 10 11  2  0
  5 12  2  0
 12 13  1  0
 13 14  2  0
 14 15  1  0
 15 16  2  0
 16 17  1  0
 17 18  1  0
 18 19  2  0
 18 20  2  0
 18 21  1  0
 17 22  2  0
 22 23  1  0
 23 24  2  0
 24 25  1  0
 25 26  1  0
 26 27  1  0
 27 28  2  0
 14  4  1  0
 24 15  1  0
 11  6  1  0
 27 23  1  0
  1 29  1  0
  1 30  1  0
  2 31  1  0
  3 32  1  0
  3 33  1  0
  7 34  1  0
  8 35  1  0
  9 36  1  0
 11 37  1  0
 16 38  1  0
 22 39  1  0
 25 40  1  0
 25 41  1  0
 26 42  1  0
M  END
>  <Energy>  (656) 
91.467713247425436

>  <compound_id>  (656) 
2763

>  <target_id>  (656) 
1

>  <reference_id>  (656) 
183

>  <inspiration_ids>  (656) 
[183, 59]

>  <energy_score>  (656) 
-22.95808224305341

>  <distance_score>  (656) 
1.8461696866343316

>  <path>  (656) 
/opt/xchem-fragalysis-2/maxwin/BulkDock/SCRATCH/505736/C2763-P183/C2763-P183.minimised.mol

>  <scratch_subdir>  (656) 
/opt/xchem-fragalysis-2/maxwin/BulkDock/SCRATCH/505736/C2763-P183

>  <fragmenstein_runtime>  (656) 
3.3760883808135986

>  <fragmenstein_outcome>  (656) 
too moved

>  <fragmenstein_mode>  (656) 
expansion

>  <fragmenstein_error>  (656) 


$$$$
C2763-P59
     RDKit          3D

 42 45  0  0  0  0  0  0  0  0999 V2000
   -1.2790   -1.1279   30.4451 C   0  0  0  0  0  0  0  0  0  0  0  0
   -1.8806   -0.5023   31.4611 C   0  0  0  0  0  0  0  0  0  0  0  0
   -1.4021   -0.5067   32.8921 C   0  0  0  0  0  0  0  0  0  0  0  0
   -2.1464   -1.5185   33.6445 N   0  0  0  0  0  0  0  0  0  0  0  0
   -3.5139   -1.2979   33.8703 C   0  0  0  0  0  0  0  0  0  0  0  0
   -4.1053   -0.2245   34.6587 C   0  0  0  0  0  0  0  0  0  0  0  0
   -5.4463    0.1298   34.4967 C   0  0  0  0  0  0  0  0  0  0  0  0
   -5.9934    1.1553   35.2661 C   0  0  0  0  0  0  0  0  0  0  0  0
   -5.1786    1.8069   36.1741 C   0  0  0  0  0  0  0  0  0  0  0  0
   -3.8809    1.4928   36.3657 N   0  0  0  0  0  0  0  0  0  0  0  0
   -3.3833    0.4769   35.6211 C   0  0  0  0  0  0  0  0  0  0  0  0
   -4.1598   -2.1237   33.0719 N   0  0  0  0  0  0  0  0  0  0  0  0
   -3.2340   -3.0096   32.5471 N   0  0  0  0  0  0  0  0  0  0  0  0
   -2.0609   -2.8227   33.1596 C   0  0  0  0  0  0  0  0  0  0  0  0
   -0.9865   -3.8549   33.3776 C   0  0  0  0  0  0  0  0  0  0  0  0
   -0.6910   -4.2853   34.6917 C   0  0  0  0  0  0  0  0  0  0  0  0
   -0.2860   -5.6252   34.9541 C   0  0  0  0  0  0  0  0  0  0  0  0
   -0.0402   -6.1549   36.6250 S   0  0  0  0  0  0  0  0  0  0  0  0
    1.3497   -5.9108   36.9463 O   0  0  0  0  0  0  0  0  0  0  0  0
   -1.1330   -5.6183   37.4049 O   0  0  0  0  0  0  0  0  0  0  0  0
   -0.2233   -7.7348   36.6492 F   0  0  0  0  0  0  0  0  0  0  0  0
   -0.2248   -6.5803   33.9458 C   0  0  0  0  0  0  0  0  0  0  0  0
   -0.3869   -6.0989   32.6694 C   0  0  0  0  0  0  0  0  0  0  0  0
   -0.6270   -4.7473   32.3726 C   0  0  0  0  0  0  0  0  0  0  0  0
   -0.4999   -4.5555   30.9018 C   0  0  0  0  0  0  0  0  0  0  0  0
   -0.4394   -5.9137   30.4074 N   0  0  0  0  0  0  0  0  0  0  0  0
   -0.5068   -6.8477   31.4145 C   0  0  0  0  0  0  0  0  0  0  0  0
   -0.7468   -8.0332   31.3127 O   0  0  0  0  0  0  0  0  0  0  0  0
   -1.7242   -1.1256   29.4508 H   0  0  0  0  0  0  0  0  0  0  0  0
   -0.3230   -1.6261   30.5548 H   0  0  0  0  0  0  0  0  0  0  0  0
   -2.8434   -0.0457   31.2583 H   0  0  0  0  0  0  0  0  0  0  0  0
   -1.5514    0.4691   33.3619 H   0  0  0  0  0  0  0  0  0  0  0  0
   -0.3395   -0.7627   32.9741 H   0  0  0  0  0  0  0  0  0  0  0  0
   -6.0770   -0.3877   33.7750 H   0  0  0  0  0  0  0  0  0  0  0  0
   -7.0338    1.4407   35.1506 H   0  0  0  0  0  0  0  0  0  0  0  0
   -5.5589    2.6170   36.7903 H   0  0  0  0  0  0  0  0  0  0  0  0
   -2.3461    0.2416   35.8441 H   0  0  0  0  0  0  0  0  0  0  0  0
   -0.9417   -3.6433   35.5374 H   0  0  0  0  0  0  0  0  0  0  0  0
   -0.0615   -7.6365   34.1318 H   0  0  0  0  0  0  0  0  0  0  0  0
    0.4408   -4.0600   30.6443 H   0  0  0  0  0  0  0  0  0  0  0  0
   -1.3326   -4.0090   30.4660 H   0  0  0  0  0  0  0  0  0  0  0  0
   -0.7063   -6.1579   29.4604 H   0  0  0  0  0  0  0  0  0  0  0  0
  1  2  2  0
  2  3  1  0
  3  4  1  0
  4  5  1  0
  5  6  1  0
  6  7  2  0
  7  8  1  0
  8  9  2  0
  9 10  1  0
 10 11  2  0
  5 12  2  0
 12 13  1  0
 13 14  2  0
 14 15  1  0
 15 16  2  0
 16 17  1  0
 17 18  1  0
 18 19  2  0
 18 20  2  0
 18 21  1  0
 17 22  2  0
 22 23  1  0
 23 24  2  0
 24 25  1  0
 25 26  1  0
 26 27  1  0
 27 28  2  0
 14  4  1  0
 24 15  1  0
 11  6  1  0
 27 23  1  0
  1 29  1  0
  1 30  1  0
  2 31  1  0
  3 32  1  0
  3 33  1  0
  7 34  1  0
  8 35  1  0
  9 36  1  0
 11 37  1  0
 16 38  1  0
 22 39  1  0
 25 40  1  0
 25 41  1  0
 26 42  1  0
M  END
>  <Energy>  (657) 
105.77400509803387

>  <compound_id>  (657) 
2763

>  <target_id>  (657) 
1

>  <reference_id>  (657) 
59

>  <inspiration_ids>  (657) 
[183, 59]

>  <energy_score>  (657) 
-8.65179039244174

>  <distance_score>  (657) 
1.8887099319253047

>  <path>  (657) 
/opt/xchem-fragalysis-2/maxwin/BulkDock/SCRATCH/505736/C2763-P59/C2763-P59.minimised.mol

>  <scratch_subdir>  (657) 
/opt/xchem-fragalysis-2/maxwin/BulkDock/SCRATCH/505736/C2763-P59

>  <fragmenstein_runtime>  (657) 
4.163201332092285

>  <fragmenstein_outcome>  (657) 
too moved

>  <fragmenstein_mode>  (657) 
expansion

>  <fragmenstein_error>  (657) 


$$$$
C2764-P183
     RDKit          3D

 38 41  0  0  0  0  0  0  0  0999 V2000
    5.2136   -5.0504   34.5000 C   0  0  0  0  0  0  0  0  0  0  0  0
    4.5035   -4.7645   33.2621 N   0  0  0  0  0  0  0  0  0  0  0  0
    3.2916   -4.0160   33.4797 C   0  0  0  0  0  0  0  0  0  0  0  0
    3.6429   -2.6137   33.7057 N   0  0  0  0  0  0  0  0  0  0  0  0
    2.8602   -1.7837   32.7655 C   0  0  0  0  0  0  0  0  0  0  0  0
    2.1720   -2.7495   31.8762 C   0  0  0  0  0  0  0  0  0  0  0  0
    2.4517   -3.9972   32.2599 C   0  0  0  0  0  0  0  0  0  0  0  0
    1.8132   -5.1911   31.6479 C   0  0  0  0  0  0  0  0  0  0  0  0
    0.3812   -4.8192   31.1766 C   0  0  0  0  0  0  0  0  0  0  0  0
    0.4650   -3.6157   30.2080 C   0  0  0  0  0  0  0  0  0  0  0  0
    1.1829   -2.3869   30.8167 C   0  0  0  0  0  0  0  0  0  0  0  0
   -0.2685   -5.9629   30.5563 N   0  0  0  0  0  0  0  0  0  0  0  0
   -0.7800   -7.0093   31.3035 C   0  0  0  0  0  0  0  0  0  0  0  0
   -1.1539   -8.0409   30.7495 O   0  0  0  0  0  0  0  0  0  0  0  0
   -0.8479   -6.7122   32.7098 C   0  0  0  0  0  0  0  0  0  0  0  0
   -1.1550   -7.8048   33.9324 S   0  0  0  0  0  0  0  0  0  0  0  0
   -0.9252   -6.6435   35.1613 C   0  0  0  0  0  0  0  0  0  0  0  0
   -0.6766   -5.3964   34.6295 C   0  0  0  0  0  0  0  0  0  0  0  0
   -0.6701   -5.4573   33.2181 C   0  0  0  0  0  0  0  0  0  0  0  0
   -0.4396   -4.4464   32.3480 N   0  0  0  0  0  0  0  0  0  0  0  0
    5.5508   -4.1399   35.0055 H   0  0  0  0  0  0  0  0  0  0  0  0
    6.0997   -5.6526   34.2758 H   0  0  0  0  0  0  0  0  0  0  0  0
    4.5915   -5.6324   35.1880 H   0  0  0  0  0  0  0  0  0  0  0  0
    5.1015   -4.2641   32.6133 H   0  0  0  0  0  0  0  0  0  0  0  0
    2.7054   -4.4076   34.3198 H   0  0  0  0  0  0  0  0  0  0  0  0
    4.6271   -2.4916   33.4994 H   0  0  0  0  0  0  0  0  0  0  0  0
    3.5217   -1.1205   32.1990 H   0  0  0  0  0  0  0  0  0  0  0  0
    2.1392   -1.1777   33.3229 H   0  0  0  0  0  0  0  0  0  0  0  0
    2.4066   -5.5190   30.7869 H   0  0  0  0  0  0  0  0  0  0  0  0
    1.8140   -6.0229   32.3609 H   0  0  0  0  0  0  0  0  0  0  0  0
   -0.5361   -3.3178   29.8702 H   0  0  0  0  0  0  0  0  0  0  0  0
    1.0084   -3.9235   29.3039 H   0  0  0  0  0  0  0  0  0  0  0  0
    1.6717   -1.8160   30.0196 H   0  0  0  0  0  0  0  0  0  0  0  0
    0.4258   -1.7296   31.2621 H   0  0  0  0  0  0  0  0  0  0  0  0
   -0.1811   -6.1236   29.5630 H   0  0  0  0  0  0  0  0  0  0  0  0
   -0.9973   -6.9259   36.2028 H   0  0  0  0  0  0  0  0  0  0  0  0
   -0.5334   -4.5060   35.2270 H   0  0  0  0  0  0  0  0  0  0  0  0
   -0.1639   -3.5557   32.7572 H   0  0  0  0  0  0  0  0  0  0  0  0
  1  2  1  0
  2  3  1  0
  3  4  1  0
  4  5  1  0
  5  6  1  0
  6  7  2  0
  7  8  1  0
  8  9  1  0
  9 10  1  0
 10 11  1  0
  9 12  1  0
 12 13  1  0
 13 14  2  0
 13 15  1  0
 15 16  1  0
 16 17  1  0
 17 18  2  0
 18 19  1  0
 19 20  1  0
  7  3  1  0
 20  9  1  0
 11  6  1  0
 19 15  2  0
  1 21  1  0
  1 22  1  0
  1 23  1  0
  2 24  1  0
  3 25  1  0
  4 26  1  0
  5 27  1  0
  5 28  1  0
  8 29  1  0
  8 30  1  0
 10 31  1  0
 10 32  1  0
 11 33  1  0
 11 34  1  0
 12 35  1  0
 17 36  1  0
 18 37  1  0
 20 38  1  0
M  END
>  <Energy>  (658) 
-133.91516766149581

>  <compound_id>  (658) 
2764

>  <target_id>  (658) 
1

>  <reference_id>  (658) 
183

>  <inspiration_ids>  (658) 
[183, 72]

>  <energy_score>  (658) 
-77.04450882135389

>  <distance_score>  (658) 
2.5218532474508826

>  <path>  (658) 
/opt/xchem-fragalysis-2/maxwin/BulkDock/SCRATCH/505736/C2764-P183/C2764-P183.minimised.mol

>  <scratch_subdir>  (658) 
/opt/xchem-fragalysis-2/maxwin/BulkDock/SCRATCH/505736/C2764-P183

>  <fragmenstein_runtime>  (658) 
1.6947197914123535

>  <fragmenstein_outcome>  (658) 
too moved

>  <fragmenstein_mode>  (658) 
expansion

>  <fragmenstein_error>  (658) 


$$$$
C2764-P72
     RDKit          3D

 38 41  0  0  0  0  0  0  0  0999 V2000
    3.8176   -5.9970   34.7639 C   0  0  0  0  0  0  0  0  0  0  0  0
    4.2114   -4.9204   33.8571 N   0  0  0  0  0  0  0  0  0  0  0  0
    3.1171   -4.0150   33.6379 C   0  0  0  0  0  0  0  0  0  0  0  0
    3.7453   -2.6892   33.5801 N   0  0  0  0  0  0  0  0  0  0  0  0
    2.8985   -1.8770   32.6736 C   0  0  0  0  0  0  0  0  0  0  0  0
    2.2170   -2.8891   31.8272 C   0  0  0  0  0  0  0  0  0  0  0  0
    2.4282   -4.1128   32.3263 C   0  0  0  0  0  0  0  0  0  0  0  0
    1.7978   -5.3224   31.7386 C   0  0  0  0  0  0  0  0  0  0  0  0
    0.3855   -4.9474   31.2018 C   0  0  0  0  0  0  0  0  0  0  0  0
    0.5222   -3.8037   30.1708 C   0  0  0  0  0  0  0  0  0  0  0  0
    1.2896   -2.5710   30.7014 C   0  0  0  0  0  0  0  0  0  0  0  0
   -0.2842   -6.1031   30.6254 N   0  0  0  0  0  0  0  0  0  0  0  0
   -0.8228   -7.1061   31.4098 C   0  0  0  0  0  0  0  0  0  0  0  0
   -1.2397   -8.1423   30.8972 O   0  0  0  0  0  0  0  0  0  0  0  0
   -0.8699   -6.7572   32.8064 C   0  0  0  0  0  0  0  0  0  0  0  0
   -1.1436   -7.8032   34.0804 S   0  0  0  0  0  0  0  0  0  0  0  0
   -0.9056   -6.5833   35.2517 C   0  0  0  0  0  0  0  0  0  0  0  0
   -0.6727   -5.3587   34.6628 C   0  0  0  0  0  0  0  0  0  0  0  0
   -0.6856   -5.4797   33.2563 C   0  0  0  0  0  0  0  0  0  0  0  0
   -0.4573   -4.5105   32.3364 N   0  0  0  0  0  0  0  0  0  0  0  0
    3.5163   -5.6085   35.7430 H   0  0  0  0  0  0  0  0  0  0  0  0
    4.6704   -6.6640   34.9236 H   0  0  0  0  0  0  0  0  0  0  0  0
    2.9996   -6.5963   34.3545 H   0  0  0  0  0  0  0  0  0  0  0  0
    4.9187   -4.3782   34.3535 H   0  0  0  0  0  0  0  0  0  0  0  0
    2.3866   -4.0171   34.4573 H   0  0  0  0  0  0  0  0  0  0  0  0
    4.6226   -2.8315   33.0804 H   0  0  0  0  0  0  0  0  0  0  0  0
    3.5201   -1.1965   32.0839 H   0  0  0  0  0  0  0  0  0  0  0  0
    2.1746   -1.2945   33.2526 H   0  0  0  0  0  0  0  0  0  0  0  0
    2.4210   -5.6911   30.9152 H   0  0  0  0  0  0  0  0  0  0  0  0
    1.7623   -6.1299   32.4748 H   0  0  0  0  0  0  0  0  0  0  0  0
   -0.4647   -3.4870   29.8088 H   0  0  0  0  0  0  0  0  0  0  0  0
    1.0559   -4.1853   29.2892 H   0  0  0  0  0  0  0  0  0  0  0  0
    1.8372   -2.0962   29.8798 H   0  0  0  0  0  0  0  0  0  0  0  0
    0.5552   -1.8387   31.0596 H   0  0  0  0  0  0  0  0  0  0  0  0
   -0.2442   -6.2730   29.6322 H   0  0  0  0  0  0  0  0  0  0  0  0
   -0.9599   -6.8131   36.3066 H   0  0  0  0  0  0  0  0  0  0  0  0
   -0.5257   -4.4416   35.2181 H   0  0  0  0  0  0  0  0  0  0  0  0
   -0.1955   -3.5927   32.6919 H   0  0  0  0  0  0  0  0  0  0  0  0
  1  2  1  0
  2  3  1  0
  3  4  1  0
  4  5  1  0
  5  6  1  0
  6  7  2  0
  7  8  1  0
  8  9  1  0
  9 10  1  0
 10 11  1  0
  9 12  1  0
 12 13  1  0
 13 14  2  0
 13 15  1  0
 15 16  1  0
 16 17  1  0
 17 18  2  0
 18 19  1  0
 19 20  1  0
  7  3  1  0
 20  9  1  0
 11  6  1  0
 19 15  2  0
  1 21  1  0
  1 22  1  0
  1 23  1  0
  2 24  1  0
  3 25  1  0
  4 26  1  0
  5 27  1  0
  5 28  1  0
  8 29  1  0
  8 30  1  0
 10 31  1  0
 10 32  1  0
 11 33  1  0
 11 34  1  0
 12 35  1  0
 17 36  1  0
 18 37  1  0
 20 38  1  0
M  END
>  <Energy>  (659) 
-132.74884709487495

>  <compound_id>  (659) 
2764

>  <target_id>  (659) 
1

>  <reference_id>  (659) 
72

>  <inspiration_ids>  (659) 
[183, 72]

>  <energy_score>  (659) 
-75.87818825473275

>  <distance_score>  (659) 
2.1479263654234853

>  <path>  (659) 
/opt/xchem-fragalysis-2/maxwin/BulkDock/SCRATCH/505736/C2764-P72/C2764-P72.minimised.mol

>  <scratch_subdir>  (659) 
/opt/xchem-fragalysis-2/maxwin/BulkDock/SCRATCH/505736/C2764-P72

>  <fragmenstein_runtime>  (659) 
1.4713852405548096

>  <fragmenstein_outcome>  (659) 
too moved

>  <fragmenstein_mode>  (659) 
expansion

>  <fragmenstein_error>  (659) 


$$$$
C2767-P183
     RDKit          3D

 56 60  0  0  0  0  0  0  0  0999 V2000
   -0.7253   -7.1674   31.1956 O   0  0  0  0  0  0  0  0  0  0  0  0
   -0.1676   -6.1828   31.6430 C   0  0  0  0  0  0  0  0  0  0  0  0
    0.4236   -5.1289   30.9411 N   0  0  0  0  0  0  0  0  0  0  0  0
    0.6383   -3.9668   31.7840 C   0  0  0  0  0  0  0  0  0  0  0  0
    1.9992   -3.4918   31.6551 N   0  0  0  0  0  0  0  0  0  0  0  0
    2.2365   -2.0884   31.2740 C   0  0  0  0  0  0  0  0  0  0  0  0
    1.8962   -0.8337   32.1349 C   0  0  0  0  0  0  0  0  0  0  0  0
    0.0963   -0.6089   32.4538 S   0  0  0  0  0  0  0  0  0  0  0  0
    2.4269    0.6254   31.1693 Cl  0  0  0  0  0  0  0  0  0  0  0  0
    2.7054   -0.7533   33.4746 C   0  0  0  0  0  0  0  0  0  0  0  0
    3.4354   -1.6020   33.8196 O   0  0  0  0  0  0  0  0  0  0  0  0
    2.2972    0.5793   34.1818 N   0  0  0  0  0  0  0  0  0  0  0  0
    2.7815    1.1810   35.4172 C   0  0  0  0  0  0  0  0  0  0  0  0
    2.5467    0.2074   36.6121 C   0  0  0  0  0  0  0  0  0  0  0  0
    1.7098    0.4018   37.6057 N   0  0  0  0  0  0  0  0  0  0  0  0
    1.7432   -0.7209   38.4034 N   0  0  0  0  0  0  0  0  0  0  0  0
    2.5945   -1.5764   37.8743 C   0  0  0  0  0  0  0  0  0  0  0  0
    2.8762   -2.8881   38.3680 C   0  0  0  0  0  0  0  0  0  0  0  0
    2.2620   -3.5097   39.4381 C   0  0  0  0  0  0  0  0  0  0  0  0
    2.7471   -4.8313   39.6553 C   0  0  0  0  0  0  0  0  0  0  0  0
    3.7246   -5.1748   38.7491 C   0  0  0  0  0  0  0  0  0  0  0  0
    4.0503   -3.9098   37.6470 S   0  0  0  0  0  0  0  0  0  0  0  0
    3.1353   -1.0187   36.7502 N   0  0  0  0  0  0  0  0  0  0  0  0
    2.3108    2.6422   35.6400 C   0  0  0  0  0  0  0  0  0  0  0  0
    3.7395    2.9751   36.1129 C   0  0  0  0  0  0  0  0  0  0  0  0
    4.2238    1.7451   35.3202 C   0  0  0  0  0  0  0  0  0  0  0  0
    0.4615   -4.5557   33.1403 C   0  0  0  0  0  0  0  0  0  0  0  0
    0.7910   -3.9801   34.3524 C   0  0  0  0  0  0  0  0  0  0  0  0
    0.6347   -4.7375   35.4938 C   0  0  0  0  0  0  0  0  0  0  0  0
    0.1556   -6.0525   35.3994 C   0  0  0  0  0  0  0  0  0  0  0  0
    0.0990   -6.9397   36.9107 S   0  0  0  0  0  0  0  0  0  0  0  0
    1.4735   -7.1637   37.3072 O   0  0  0  0  0  0  0  0  0  0  0  0
   -0.8596   -6.2548   37.7504 O   0  0  0  0  0  0  0  0  0  0  0  0
   -0.5151   -8.3543   36.5750 F   0  0  0  0  0  0  0  0  0  0  0  0
   -0.2077   -6.6471   34.1870 C   0  0  0  0  0  0  0  0  0  0  0  0
   -0.0225   -5.8640   33.0662 C   0  0  0  0  0  0  0  0  0  0  0  0
    0.1911   -5.0400   29.9596 H   0  0  0  0  0  0  0  0  0  0  0  0
   -0.1427   -3.2448   31.5377 H   0  0  0  0  0  0  0  0  0  0  0  0
    2.4651   -4.1091   30.9927 H   0  0  0  0  0  0  0  0  0  0  0  0
    1.7781   -1.9576   30.2830 H   0  0  0  0  0  0  0  0  0  0  0  0
    3.3194   -2.0444   31.0881 H   0  0  0  0  0  0  0  0  0  0  0  0
    0.0164   -1.3960   33.5349 H   0  0  0  0  0  0  0  0  0  0  0  0
    1.5740    1.0473   33.6361 H   0  0  0  0  0  0  0  0  0  0  0  0
    1.4854   -3.0387   40.0311 H   0  0  0  0  0  0  0  0  0  0  0  0
    2.3888   -5.4999   40.4288 H   0  0  0  0  0  0  0  0  0  0  0  0
    4.2519   -6.1163   38.6747 H   0  0  0  0  0  0  0  0  0  0  0  0
    3.7711   -1.4619   36.0998 H   0  0  0  0  0  0  0  0  0  0  0  0
    2.0269    3.1715   34.7215 H   0  0  0  0  0  0  0  0  0  0  0  0
    1.5245    2.8073   36.3822 H   0  0  0  0  0  0  0  0  0  0  0  0
    3.8787    2.8856   37.1963 H   0  0  0  0  0  0  0  0  0  0  0  0
    4.1362    3.9385   35.7829 H   0  0  0  0  0  0  0  0  0  0  0  0
    4.5473    1.9867   34.2999 H   0  0  0  0  0  0  0  0  0  0  0  0
    5.0170    1.1657   35.8021 H   0  0  0  0  0  0  0  0  0  0  0  0
    1.2101   -2.9862   34.4271 H   0  0  0  0  0  0  0  0  0  0  0  0
    0.9008   -4.3164   36.4625 H   0  0  0  0  0  0  0  0  0  0  0  0
   -0.5679   -7.6682   34.1160 H   0  0  0  0  0  0  0  0  0  0  0  0
  1  2  2  0
  2  3  1  0
  3  4  1  0
  4  5  1  0
  5  6  1  0
  6  7  1  0
  7  8  1  0
  7  9  1  0
  7 10  1  0
 10 11  2  0
 10 12  1  0
 12 13  1  0
 13 14  1  0
 14 15  2  0
 15 16  1  0
 16 17  2  0
 17 18  1  0
 18 19  2  0
 19 20  1  0
 20 21  2  0
 21 22  1  0
 17 23  1  0
 13 24  1  0
 24 25  1  0
 25 26  1  0
  4 27  1  0
 27 28  2  0
 28 29  1  0
 29 30  2  0
 30 31  1  0
 31 32  2  0
 31 33  2  0
 31 34  1  0
 30 35  1  0
 35 36  2  0
 36  2  1  0
 26 13  1  0
 36 27  1  0
 23 14  1  0
 22 18  1  0
  3 37  1  0
  4 38  1  0
  5 39  1  0
  6 40  1  0
  6 41  1  0
  8 42  1  0
 12 43  1  0
 19 44  1  0
 20 45  1  0
 21 46  1  0
 23 47  1  0
 24 48  1  0
 24 49  1  0
 25 50  1  0
 25 51  1  0
 26 52  1  0
 26 53  1  0
 28 54  1  0
 29 55  1  0
 35 56  1  0
M  END
>  <Energy>  (660) 
73.06190451720343

>  <compound_id>  (660) 
2767

>  <target_id>  (660) 
1

>  <reference_id>  (660) 
183

>  <inspiration_ids>  (660) 
[183, 128]

>  <energy_score>  (660) 
-79.98049346084218

>  <distance_score>  (660) 
2.006506936275953

>  <path>  (660) 
/opt/xchem-fragalysis-2/maxwin/BulkDock/SCRATCH/505736/C2767-P183/C2767-P183.minimised.mol

>  <scratch_subdir>  (660) 
/opt/xchem-fragalysis-2/maxwin/BulkDock/SCRATCH/505736/C2767-P183

>  <fragmenstein_runtime>  (660) 
5.274306297302246

>  <fragmenstein_outcome>  (660) 
too moved

>  <fragmenstein_mode>  (660) 
expansion

>  <fragmenstein_error>  (660) 


$$$$
C2767-P128
     RDKit          3D

 56 60  0  0  0  0  0  0  0  0999 V2000
   -1.0247   -7.5017   30.9501 O   0  0  0  0  0  0  0  0  0  0  0  0
   -0.4179   -6.4987   31.2714 C   0  0  0  0  0  0  0  0  0  0  0  0
    0.0217   -5.4908   30.4381 N   0  0  0  0  0  0  0  0  0  0  0  0
    0.5022   -4.3396   31.1516 C   0  0  0  0  0  0  0  0  0  0  0  0
    1.8230   -4.1034   30.6229 N   0  0  0  0  0  0  0  0  0  0  0  0
    2.3102   -2.7283   30.8588 C   0  0  0  0  0  0  0  0  0  0  0  0
    3.6832   -2.4040   30.1977 C   0  0  0  0  0  0  0  0  0  0  0  0
    3.5869   -2.6339   28.3702 S   0  0  0  0  0  0  0  0  0  0  0  0
    4.9713   -3.5037   30.8210 Cl  0  0  0  0  0  0  0  0  0  0  0  0
    4.0802   -0.9263   30.5541 C   0  0  0  0  0  0  0  0  0  0  0  0
    3.9896   -0.0696   29.7184 O   0  0  0  0  0  0  0  0  0  0  0  0
    4.4262   -0.8425   31.9577 N   0  0  0  0  0  0  0  0  0  0  0  0
    4.8643    0.2889   32.7712 C   0  0  0  0  0  0  0  0  0  0  0  0
    4.8677   -0.1720   34.2723 C   0  0  0  0  0  0  0  0  0  0  0  0
    4.2917   -1.2822   34.6877 N   0  0  0  0  0  0  0  0  0  0  0  0
    4.4826   -1.3704   36.0465 N   0  0  0  0  0  0  0  0  0  0  0  0
    5.1720   -0.3161   36.4334 C   0  0  0  0  0  0  0  0  0  0  0  0
    5.5800   -0.0298   37.7744 C   0  0  0  0  0  0  0  0  0  0  0  0
    5.3266   -0.8018   38.8920 C   0  0  0  0  0  0  0  0  0  0  0  0
    5.8700   -0.2382   40.0833 C   0  0  0  0  0  0  0  0  0  0  0  0
    6.5227    0.9486   39.8382 C   0  0  0  0  0  0  0  0  0  0  0  0
    6.4769    1.3743   38.1828 S   0  0  0  0  0  0  0  0  0  0  0  0
    5.4349    0.4637   35.3393 N   0  0  0  0  0  0  0  0  0  0  0  0
    4.1202    1.6248   32.5269 C   0  0  0  0  0  0  0  0  0  0  0  0
    5.4852    2.3396   32.5211 C   0  0  0  0  0  0  0  0  0  0  0  0
    6.1580    0.9754   32.2762 C   0  0  0  0  0  0  0  0  0  0  0  0
    0.4820   -4.8127   32.5722 C   0  0  0  0  0  0  0  0  0  0  0  0
    0.8835   -4.1683   33.7326 C   0  0  0  0  0  0  0  0  0  0  0  0
    0.7625   -4.8482   34.9442 C   0  0  0  0  0  0  0  0  0  0  0  0
    0.2231   -6.1479   34.9746 C   0  0  0  0  0  0  0  0  0  0  0  0
    0.1253   -6.9674   36.5356 S   0  0  0  0  0  0  0  0  0  0  0  0
    1.4576   -7.4565   36.8254 O   0  0  0  0  0  0  0  0  0  0  0  0
   -0.6057   -6.0940   37.4311 O   0  0  0  0  0  0  0  0  0  0  0  0
   -0.7988   -8.2330   36.3142 F   0  0  0  0  0  0  0  0  0  0  0  0
   -0.2255   -6.7933   33.8204 C   0  0  0  0  0  0  0  0  0  0  0  0
   -0.0671   -6.0986   32.6373 C   0  0  0  0  0  0  0  0  0  0  0  0
   -0.2757   -5.4697   29.4708 H   0  0  0  0  0  0  0  0  0  0  0  0
   -0.2077   -3.5237   30.9762 H   0  0  0  0  0  0  0  0  0  0  0  0
    1.7896   -4.2643   29.6163 H   0  0  0  0  0  0  0  0  0  0  0  0
    2.3908   -2.5581   31.9358 H   0  0  0  0  0  0  0  0  0  0  0  0
    1.5658   -2.0090   30.4900 H   0  0  0  0  0  0  0  0  0  0  0  0
    3.3092   -1.3455   28.0996 H   0  0  0  0  0  0  0  0  0  0  0  0
    4.4864   -1.7869   32.3431 H   0  0  0  0  0  0  0  0  0  0  0  0
    4.7729   -1.7339   38.8543 H   0  0  0  0  0  0  0  0  0  0  0  0
    5.7848   -0.6828   41.0677 H   0  0  0  0  0  0  0  0  0  0  0  0
    7.0249    1.5870   40.5527 H   0  0  0  0  0  0  0  0  0  0  0  0
    5.9480    1.3323   35.3419 H   0  0  0  0  0  0  0  0  0  0  0  0
    3.5909    1.7030   31.5713 H   0  0  0  0  0  0  0  0  0  0  0  0
    3.4349    1.9526   33.3153 H   0  0  0  0  0  0  0  0  0  0  0  0
    5.7483    2.7993   33.4798 H   0  0  0  0  0  0  0  0  0  0  0  0
    5.6238    3.0797   31.7283 H   0  0  0  0  0  0  0  0  0  0  0  0
    7.0654    0.7947   32.8606 H   0  0  0  0  0  0  0  0  0  0  0  0
    6.3956    0.7976   31.2203 H   0  0  0  0  0  0  0  0  0  0  0  0
    1.2900   -3.1623   33.7246 H   0  0  0  0  0  0  0  0  0  0  0  0
    1.0898   -4.3663   35.8656 H   0  0  0  0  0  0  0  0  0  0  0  0
   -0.6619   -7.7875   33.8348 H   0  0  0  0  0  0  0  0  0  0  0  0
  1  2  2  0
  2  3  1  0
  3  4  1  0
  4  5  1  0
  5  6  1  0
  6  7  1  0
  7  8  1  0
  7  9  1  0
  7 10  1  0
 10 11  2  0
 10 12  1  0
 12 13  1  0
 13 14  1  0
 14 15  2  0
 15 16  1  0
 16 17  2  0
 17 18  1  0
 18 19  2  0
 19 20  1  0
 20 21  2  0
 21 22  1  0
 17 23  1  0
 13 24  1  0
 24 25  1  0
 25 26  1  0
  4 27  1  0
 27 28  2  0
 28 29  1  0
 29 30  2  0
 30 31  1  0
 31 32  2  0
 31 33  2  0
 31 34  1  0
 30 35  1  0
 35 36  2  0
 36  2  1  0
 26 13  1  0
 36 27  1  0
 23 14  1  0
 22 18  1  0
  3 37  1  0
  4 38  1  0
  5 39  1  0
  6 40  1  0
  6 41  1  0
  8 42  1  0
 12 43  1  0
 19 44  1  0
 20 45  1  0
 21 46  1  0
 23 47  1  0
 24 48  1  0
 24 49  1  0
 25 50  1  0
 25 51  1  0
 26 52  1  0
 26 53  1  0
 28 54  1  0
 29 55  1  0
 35 56  1  0
M  END
>  <Energy>  (661) 
57.049921544851479

>  <compound_id>  (661) 
2767

>  <target_id>  (661) 
1

>  <reference_id>  (661) 
128

>  <inspiration_ids>  (661) 
[183, 128]

>  <energy_score>  (661) 
-73.673734366123

>  <distance_score>  (661) 
2.4537947289566993

>  <path>  (661) 
/opt/xchem-fragalysis-2/maxwin/BulkDock/SCRATCH/505736/C2767-P128/C2767-P128.minimised.mol

>  <scratch_subdir>  (661) 
/opt/xchem-fragalysis-2/maxwin/BulkDock/SCRATCH/505736/C2767-P128

>  <fragmenstein_runtime>  (661) 
7.817265272140503

>  <fragmenstein_outcome>  (661) 
too moved

>  <fragmenstein_mode>  (661) 
expansion

>  <fragmenstein_error>  (661) 


$$$$
C2768-P183
     RDKit          3D

 34 37  0  0  0  0  0  0  0  0999 V2000
   -1.4785   -8.1705   31.3665 O   0  0  0  0  0  0  0  0  0  0  0  0
   -0.7407   -7.2069   31.3811 C   0  0  0  0  0  0  0  0  0  0  0  0
   -0.2303   -6.5514   30.2881 N   0  0  0  0  0  0  0  0  0  0  0  0
    0.4254   -5.3080   30.6271 C   0  0  0  0  0  0  0  0  0  0  0  0
    0.4226   -5.3240   32.1207 C   0  0  0  0  0  0  0  0  0  0  0  0
    0.9695   -4.4255   33.0342 C   0  0  0  0  0  0  0  0  0  0  0  0
    1.9553   -2.9791   32.6230 S   0  0  0  0  0  0  0  0  0  0  0  0
    0.8915   -2.0106   31.6595 C   0  0  0  0  0  0  0  0  0  0  0  0
   -0.3164   -2.3213   31.2760 N   0  0  0  0  0  0  0  0  0  0  0  0
   -0.6196   -1.3918   30.3196 C   0  0  0  0  0  0  0  0  0  0  0  0
   -1.6874   -1.4175   29.4434 C   0  0  0  0  0  0  0  0  0  0  0  0
   -1.6953   -0.4735   28.4377 C   0  0  0  0  0  0  0  0  0  0  0  0
   -2.6161   -0.6198   27.4951 F   0  0  0  0  0  0  0  0  0  0  0  0
   -0.7674    0.5564   28.3515 C   0  0  0  0  0  0  0  0  0  0  0  0
    0.2897    0.6277   29.2625 C   0  0  0  0  0  0  0  0  0  0  0  0
    0.3556   -0.4062   30.2068 C   0  0  0  0  0  0  0  0  0  0  0  0
    1.2982   -0.8053   31.1346 N   0  0  0  0  0  0  0  0  0  0  0  0
    0.8369   -4.7619   34.3957 C   0  0  0  0  0  0  0  0  0  0  0  0
    0.1529   -5.9333   34.8053 C   0  0  0  0  0  0  0  0  0  0  0  0
    0.0941   -6.3308   36.5297 S   0  0  0  0  0  0  0  0  0  0  0  0
    1.4135   -6.0746   37.0714 O   0  0  0  0  0  0  0  0  0  0  0  0
   -1.1042   -5.7246   37.0665 O   0  0  0  0  0  0  0  0  0  0  0  0
   -0.1100   -7.9011   36.6329 F   0  0  0  0  0  0  0  0  0  0  0  0
   -0.4147   -6.8135   33.8886 C   0  0  0  0  0  0  0  0  0  0  0  0
   -0.2613   -6.4756   32.5605 C   0  0  0  0  0  0  0  0  0  0  0  0
   -0.6373   -6.7204   29.3754 H   0  0  0  0  0  0  0  0  0  0  0  0
   -0.1716   -4.5028   30.2006 H   0  0  0  0  0  0  0  0  0  0  0  0
    1.4339   -5.3209   30.2064 H   0  0  0  0  0  0  0  0  0  0  0  0
   -2.4187   -2.2141   29.4523 H   0  0  0  0  0  0  0  0  0  0  0  0
   -0.8522    1.2763   27.5425 H   0  0  0  0  0  0  0  0  0  0  0  0
    1.0539    1.3929   29.1837 H   0  0  0  0  0  0  0  0  0  0  0  0
    2.1951   -0.3729   31.2961 H   0  0  0  0  0  0  0  0  0  0  0  0
    1.2755   -4.1163   35.1580 H   0  0  0  0  0  0  0  0  0  0  0  0
   -0.9376   -7.7200   34.1821 H   0  0  0  0  0  0  0  0  0  0  0  0
  1  2  2  0
  2  3  1  0
  3  4  1  0
  4  5  1  0
  5  6  2  0
  6  7  1  0
  7  8  1  0
  8  9  2  0
  9 10  1  0
 10 11  2  0
 11 12  1  0
 12 13  1  0
 12 14  2  0
 14 15  1  0
 15 16  2  0
 16 17  1  0
  6 18  1  0
 18 19  2  0
 19 20  1  0
 20 21  2  0
 20 22  2  0
 20 23  1  0
 19 24  1  0
 24 25  2  0
 25  2  1  0
 25  5  1  0
 17  8  1  0
 16 10  1  0
  3 26  1  0
  4 27  1  0
  4 28  1  0
 11 29  1  0
 14 30  1  0
 15 31  1  0
 17 32  1  0
 18 33  1  0
 24 34  1  0
M  END
>  <Energy>  (662) 
9.0720749009155774

>  <compound_id>  (662) 
2768

>  <target_id>  (662) 
1

>  <reference_id>  (662) 
183

>  <inspiration_ids>  (662) 
[183, 130]

>  <energy_score>  (662) 
-31.38838638057429

>  <distance_score>  (662) 
1.5183220604276417

>  <path>  (662) 
/opt/xchem-fragalysis-2/maxwin/BulkDock/SCRATCH/505736/C2768-P183/C2768-P183.minimised.mol

>  <scratch_subdir>  (662) 
/opt/xchem-fragalysis-2/maxwin/BulkDock/SCRATCH/505736/C2768-P183

>  <fragmenstein_runtime>  (662) 
4.549565553665161

>  <fragmenstein_outcome>  (662) 
too moved

>  <fragmenstein_mode>  (662) 
expansion

>  <fragmenstein_error>  (662) 


$$$$
C2768-P130
     RDKit          3D

 34 37  0  0  0  0  0  0  0  0999 V2000
   -1.4654   -8.1846   31.3726 O   0  0  0  0  0  0  0  0  0  0  0  0
   -0.7454   -7.2074   31.3646 C   0  0  0  0  0  0  0  0  0  0  0  0
   -0.2533   -6.5609   30.2589 N   0  0  0  0  0  0  0  0  0  0  0  0
    0.3761   -5.2972   30.5782 C   0  0  0  0  0  0  0  0  0  0  0  0
    0.3906   -5.2953   32.0727 C   0  0  0  0  0  0  0  0  0  0  0  0
    0.9354   -4.3844   32.9755 C   0  0  0  0  0  0  0  0  0  0  0  0
    1.9094   -2.9325   32.5685 S   0  0  0  0  0  0  0  0  0  0  0  0
    0.8702   -1.9638   31.5816 C   0  0  0  0  0  0  0  0  0  0  0  0
   -0.2262   -2.3398   30.9831 N   0  0  0  0  0  0  0  0  0  0  0  0
   -0.5148   -1.3207   30.1154 C   0  0  0  0  0  0  0  0  0  0  0  0
   -1.4674   -1.3117   29.1123 C   0  0  0  0  0  0  0  0  0  0  0  0
   -1.5194   -0.1955   28.3013 C   0  0  0  0  0  0  0  0  0  0  0  0
   -2.3790   -0.2207   27.2917 F   0  0  0  0  0  0  0  0  0  0  0  0
   -0.7138    0.9189   28.4886 C   0  0  0  0  0  0  0  0  0  0  0  0
    0.2503    0.9272   29.4983 C   0  0  0  0  0  0  0  0  0  0  0  0
    0.3392   -0.2348   30.2756 C   0  0  0  0  0  0  0  0  0  0  0  0
    1.2055   -0.6693   31.2591 N   0  0  0  0  0  0  0  0  0  0  0  0
    0.8301   -4.7196   34.3409 C   0  0  0  0  0  0  0  0  0  0  0  0
    0.1729   -5.8986   34.7657 C   0  0  0  0  0  0  0  0  0  0  0  0
    0.1633   -6.2987   36.4894 S   0  0  0  0  0  0  0  0  0  0  0  0
    1.4988   -6.0597   36.9939 O   0  0  0  0  0  0  0  0  0  0  0  0
   -1.0172   -5.6926   37.0614 O   0  0  0  0  0  0  0  0  0  0  0  0
   -0.0525   -7.8710   36.5824 F   0  0  0  0  0  0  0  0  0  0  0  0
   -0.3981   -6.7882   33.8614 C   0  0  0  0  0  0  0  0  0  0  0  0
   -0.2686   -6.4541   32.5299 C   0  0  0  0  0  0  0  0  0  0  0  0
   -0.6873   -6.7303   29.3599 H   0  0  0  0  0  0  0  0  0  0  0  0
   -0.2535   -4.5214   30.1469 H   0  0  0  0  0  0  0  0  0  0  0  0
    1.3784   -5.2875   30.1434 H   0  0  0  0  0  0  0  0  0  0  0  0
   -2.1001   -2.1666   28.9089 H   0  0  0  0  0  0  0  0  0  0  0  0
   -0.8285    1.7720   27.8253 H   0  0  0  0  0  0  0  0  0  0  0  0
    0.9160    1.7720   29.6374 H   0  0  0  0  0  0  0  0  0  0  0  0
    2.0155   -0.1754   31.6020 H   0  0  0  0  0  0  0  0  0  0  0  0
    1.2756   -4.0679   35.0946 H   0  0  0  0  0  0  0  0  0  0  0  0
   -0.9032   -7.7007   34.1633 H   0  0  0  0  0  0  0  0  0  0  0  0
  1  2  2  0
  2  3  1  0
  3  4  1  0
  4  5  1  0
  5  6  2  0
  6  7  1  0
  7  8  1  0
  8  9  2  0
  9 10  1  0
 10 11  2  0
 11 12  1  0
 12 13  1  0
 12 14  2  0
 14 15  1  0
 15 16  2  0
 16 17  1  0
  6 18  1  0
 18 19  2  0
 19 20  1  0
 20 21  2  0
 20 22  2  0
 20 23  1  0
 19 24  1  0
 24 25  2  0
 25  2  1  0
 25  5  1  0
 17  8  1  0
 16 10  1  0
  3 26  1  0
  4 27  1  0
  4 28  1  0
 11 29  1  0
 14 30  1  0
 15 31  1  0
 17 32  1  0
 18 33  1  0
 24 34  1  0
M  END
>  <Energy>  (663) 
8.5535433540743746

>  <compound_id>  (663) 
2768

>  <target_id>  (663) 
1

>  <reference_id>  (663) 
130

>  <inspiration_ids>  (663) 
[183, 130]

>  <energy_score>  (663) 
-31.906917927413375

>  <distance_score>  (663) 
1.5331861075024704

>  <path>  (663) 
/opt/xchem-fragalysis-2/maxwin/BulkDock/SCRATCH/505736/C2768-P130/C2768-P130.minimised.mol

>  <scratch_subdir>  (663) 
/opt/xchem-fragalysis-2/maxwin/BulkDock/SCRATCH/505736/C2768-P130

>  <fragmenstein_runtime>  (663) 
4.282196283340454

>  <fragmenstein_outcome>  (663) 
too moved

>  <fragmenstein_mode>  (663) 
expansion

>  <fragmenstein_error>  (663) 


$$$$
C2769-P183
     RDKit          3D

 37 39  0  0  0  0  0  0  0  0999 V2000
   -1.2766   -8.3758   31.4249 O   0  0  0  0  0  0  0  0  0  0  0  0
   -0.7557   -7.2977   31.6213 C   0  0  0  0  0  0  0  0  0  0  0  0
   -0.3243   -6.4049   30.6578 N   0  0  0  0  0  0  0  0  0  0  0  0
    0.1723   -5.1559   31.2115 C   0  0  0  0  0  0  0  0  0  0  0  0
    1.7034   -5.0691   31.0412 C   0  0  0  0  0  0  0  0  0  0  0  0
    2.4372   -4.0007   31.8717 C   0  0  0  0  0  0  0  0  0  0  0  0
    2.9950   -4.5593   33.1285 N   0  0  0  0  0  0  0  0  0  0  0  0
    3.4366   -3.4914   34.3769 S   0  0  0  0  0  0  0  0  0  0  0  0
    4.4022   -4.1893   35.1921 O   0  0  0  0  0  0  0  0  0  0  0  0
    2.2380   -2.8958   34.9179 O   0  0  0  0  0  0  0  0  0  0  0  0
    4.2446   -2.1392   33.6196 C   0  0  0  0  0  0  0  0  0  0  0  0
    3.7898   -1.1091   32.8210 C   0  0  0  0  0  0  0  0  0  0  0  0
    4.8813   -0.3216   32.3904 C   0  0  0  0  0  0  0  0  0  0  0  0
    6.0873   -0.6594   32.8432 N   0  0  0  0  0  0  0  0  0  0  0  0
    5.9164   -1.9703   33.8466 S   0  0  0  0  0  0  0  0  0  0  0  0
   -0.1951   -5.3171   32.6477 C   0  0  0  0  0  0  0  0  0  0  0  0
   -0.1174   -4.3775   33.6539 C   0  0  0  0  0  0  0  0  0  0  0  0
   -0.1385   -4.8335   34.9603 C   0  0  0  0  0  0  0  0  0  0  0  0
   -0.3023   -6.1999   35.2194 C   0  0  0  0  0  0  0  0  0  0  0  0
    0.0129   -6.7162   36.8703 S   0  0  0  0  0  0  0  0  0  0  0  0
    1.4366   -6.5693   37.0952 O   0  0  0  0  0  0  0  0  0  0  0  0
   -0.9773   -6.0770   37.7082 O   0  0  0  0  0  0  0  0  0  0  0  0
   -0.2745   -8.2691   36.9266 F   0  0  0  0  0  0  0  0  0  0  0  0
   -0.6064   -7.1196   34.2117 C   0  0  0  0  0  0  0  0  0  0  0  0
   -0.5433   -6.6398   32.9203 C   0  0  0  0  0  0  0  0  0  0  0  0
   -0.4735   -6.5853   29.6714 H   0  0  0  0  0  0  0  0  0  0  0  0
   -0.3551   -4.3204   30.7417 H   0  0  0  0  0  0  0  0  0  0  0  0
    2.1421   -6.0461   31.2581 H   0  0  0  0  0  0  0  0  0  0  0  0
    1.8994   -4.8799   29.9774 H   0  0  0  0  0  0  0  0  0  0  0  0
    3.2921   -3.6575   31.2764 H   0  0  0  0  0  0  0  0  0  0  0  0
    1.7911   -3.1390   32.0508 H   0  0  0  0  0  0  0  0  0  0  0  0
    3.7274   -5.2604   33.0139 H   0  0  0  0  0  0  0  0  0  0  0  0
    2.7537   -0.9467   32.5577 H   0  0  0  0  0  0  0  0  0  0  0  0
    4.8276    0.5427   31.7390 H   0  0  0  0  0  0  0  0  0  0  0  0
    0.0561   -3.3247   33.4585 H   0  0  0  0  0  0  0  0  0  0  0  0
    0.0348   -4.1312   35.7761 H   0  0  0  0  0  0  0  0  0  0  0  0
   -0.8130   -8.1623   34.4186 H   0  0  0  0  0  0  0  0  0  0  0  0
  1  2  2  0
  2  3  1  0
  3  4  1  0
  4  5  1  0
  5  6  1  0
  6  7  1  0
  7  8  1  0
  8  9  2  0
  8 10  2  0
  8 11  1  0
 11 12  2  0
 12 13  1  0
 13 14  2  0
 14 15  1  0
  4 16  1  0
 16 17  2  0
 17 18  1  0
 18 19  2  0
 19 20  1  0
 20 21  2  0
 20 22  2  0
 20 23  1  0
 19 24  1  0
 24 25  2  0
 25  2  1  0
 15 11  1  0
 25 16  1  0
  3 26  1  0
  4 27  1  0
  5 28  1  0
  5 29  1  0
  6 30  1  0
  6 31  1  0
  7 32  1  0
 12 33  1  0
 13 34  1  0
 17 35  1  0
 18 36  1  0
 24 37  1  0
M  END
>  <Energy>  (664) 
-22.119884846114598

>  <compound_id>  (664) 
2769

>  <target_id>  (664) 
1

>  <reference_id>  (664) 
183

>  <inspiration_ids>  (664) 
[183, 132]

>  <energy_score>  (664) 
-47.891565712932405

>  <distance_score>  (664) 
1.38592588895052

>  <path>  (664) 
/opt/xchem-fragalysis-2/maxwin/BulkDock/SCRATCH/505736/C2769-P183/C2769-P183.minimised.mol

>  <scratch_subdir>  (664) 
/opt/xchem-fragalysis-2/maxwin/BulkDock/SCRATCH/505736/C2769-P183

>  <fragmenstein_runtime>  (664) 
5.379978656768799

>  <fragmenstein_outcome>  (664) 
too moved

>  <fragmenstein_mode>  (664) 
expansion

>  <fragmenstein_error>  (664) 


$$$$
C2769-P132
     RDKit          3D

 37 39  0  0  0  0  0  0  0  0999 V2000
   -0.9564   -8.1241   31.3662 O   0  0  0  0  0  0  0  0  0  0  0  0
   -0.5301   -7.0203   31.6371 C   0  0  0  0  0  0  0  0  0  0  0  0
   -0.0612   -6.0536   30.7560 N   0  0  0  0  0  0  0  0  0  0  0  0
   -0.0176   -4.7371   31.3706 C   0  0  0  0  0  0  0  0  0  0  0  0
    1.3185   -3.9727   31.2638 C   0  0  0  0  0  0  0  0  0  0  0  0
    2.5800   -4.6524   31.8077 C   0  0  0  0  0  0  0  0  0  0  0  0
    2.8051   -4.7140   33.2620 N   0  0  0  0  0  0  0  0  0  0  0  0
    3.2600   -3.4083   34.2230 S   0  0  0  0  0  0  0  0  0  0  0  0
    4.0597   -3.9447   35.2995 O   0  0  0  0  0  0  0  0  0  0  0  0
    2.0651   -2.6381   34.4825 O   0  0  0  0  0  0  0  0  0  0  0  0
    4.2406   -2.3005   33.3073 C   0  0  0  0  0  0  0  0  0  0  0  0
    3.9703   -1.4794   32.2317 C   0  0  0  0  0  0  0  0  0  0  0  0
    5.1303   -0.7527   31.8809 C   0  0  0  0  0  0  0  0  0  0  0  0
    6.2177   -0.9501   32.6237 N   0  0  0  0  0  0  0  0  0  0  0  0
    5.8390   -2.0402   33.8169 S   0  0  0  0  0  0  0  0  0  0  0  0
   -0.3304   -5.0463   32.7916 C   0  0  0  0  0  0  0  0  0  0  0  0
   -0.3337   -4.1691   33.8548 C   0  0  0  0  0  0  0  0  0  0  0  0
   -0.2741   -4.7071   35.1275 C   0  0  0  0  0  0  0  0  0  0  0  0
   -0.2923   -6.0989   35.2943 C   0  0  0  0  0  0  0  0  0  0  0  0
    0.0966   -6.6917   36.9033 S   0  0  0  0  0  0  0  0  0  0  0  0
    1.5298   -6.5601   37.0479 O   0  0  0  0  0  0  0  0  0  0  0  0
   -0.8548   -6.0994   37.8142 O   0  0  0  0  0  0  0  0  0  0  0  0
   -0.1994   -8.2461   36.8787 F   0  0  0  0  0  0  0  0  0  0  0  0
   -0.4942   -6.9841   34.2296 C   0  0  0  0  0  0  0  0  0  0  0  0
   -0.4928   -6.4167   32.9741 C   0  0  0  0  0  0  0  0  0  0  0  0
   -0.2455   -6.1855   29.7666 H   0  0  0  0  0  0  0  0  0  0  0  0
   -0.8278   -4.1445   30.9306 H   0  0  0  0  0  0  0  0  0  0  0  0
    1.4905   -3.7905   30.1942 H   0  0  0  0  0  0  0  0  0  0  0  0
    1.2107   -2.9854   31.7271 H   0  0  0  0  0  0  0  0  0  0  0  0
    2.5849   -5.6846   31.4451 H   0  0  0  0  0  0  0  0  0  0  0  0
    3.4598   -4.1877   31.3492 H   0  0  0  0  0  0  0  0  0  0  0  0
    2.2046   -5.3439   33.7912 H   0  0  0  0  0  0  0  0  0  0  0  0
    3.0098   -1.3981   31.7440 H   0  0  0  0  0  0  0  0  0  0  0  0
    5.2153   -0.0371   31.0718 H   0  0  0  0  0  0  0  0  0  0  0  0
   -0.2753   -3.0928   33.7155 H   0  0  0  0  0  0  0  0  0  0  0  0
   -0.1595   -4.0416   35.9840 H   0  0  0  0  0  0  0  0  0  0  0  0
   -0.5596   -8.0567   34.3629 H   0  0  0  0  0  0  0  0  0  0  0  0
  1  2  2  0
  2  3  1  0
  3  4  1  0
  4  5  1  0
  5  6  1  0
  6  7  1  0
  7  8  1  0
  8  9  2  0
  8 10  2  0
  8 11  1  0
 11 12  2  0
 12 13  1  0
 13 14  2  0
 14 15  1  0
  4 16  1  0
 16 17  2  0
 17 18  1  0
 18 19  2  0
 19 20  1  0
 20 21  2  0
 20 22  2  0
 20 23  1  0
 19 24  1  0
 24 25  2  0
 25  2  1  0
 15 11  1  0
 25 16  1  0
  3 26  1  0
  4 27  1  0
  5 28  1  0
  5 29  1  0
  6 30  1  0
  6 31  1  0
  7 32  1  0
 12 33  1  0
 13 34  1  0
 17 35  1  0
 18 36  1  0
 24 37  1  0
M  END
>  <Energy>  (665) 
-19.787645824720602

>  <compound_id>  (665) 
2769

>  <target_id>  (665) 
1

>  <reference_id>  (665) 
132

>  <inspiration_ids>  (665) 
[183, 132]

>  <energy_score>  (665) 
-45.55932669153762

>  <distance_score>  (665) 
1.4116350663215902

>  <path>  (665) 
/opt/xchem-fragalysis-2/maxwin/BulkDock/SCRATCH/505736/C2769-P132/C2769-P132.minimised.mol

>  <scratch_subdir>  (665) 
/opt/xchem-fragalysis-2/maxwin/BulkDock/SCRATCH/505736/C2769-P132

>  <fragmenstein_runtime>  (665) 
5.167451620101929

>  <fragmenstein_outcome>  (665) 
too moved

>  <fragmenstein_mode>  (665) 
expansion

>  <fragmenstein_error>  (665) 


$$$$
C2770-P183
     RDKit          3D

 42 44  0  0  0  0  0  0  0  0999 V2000
   -1.4742   -8.4198   31.3701 O   0  0  0  0  0  0  0  0  0  0  0  0
   -0.8533   -7.3798   31.4252 C   0  0  0  0  0  0  0  0  0  0  0  0
   -0.5128   -6.5807   30.3586 N   0  0  0  0  0  0  0  0  0  0  0  0
    0.0564   -5.2981   30.7407 C   0  0  0  0  0  0  0  0  0  0  0  0
    1.3375   -5.0553   29.9344 C   0  0  0  0  0  0  0  0  0  0  0  0
    2.2863   -4.0002   30.4806 C   0  0  0  0  0  0  0  0  0  0  0  0
    3.1648   -4.6400   31.4567 N   0  0  0  0  0  0  0  0  0  0  0  0
    4.4999   -3.8307   32.0599 S   0  0  0  0  0  0  0  0  0  0  0  0
    5.1387   -3.1262   30.9735 O   0  0  0  0  0  0  0  0  0  0  0  0
    5.2038   -4.7866   32.8847 O   0  0  0  0  0  0  0  0  0  0  0  0
    3.7195   -2.6588   33.1285 C   0  0  0  0  0  0  0  0  0  0  0  0
    3.6816   -2.8968   34.5107 C   0  0  0  0  0  0  0  0  0  0  0  0
    3.1820   -1.9137   35.3528 C   0  0  0  0  0  0  0  0  0  0  0  0
    2.7493   -0.7128   34.7997 C   0  0  0  0  0  0  0  0  0  0  0  0
    2.3609    0.3205   35.5911 O   0  0  0  0  0  0  0  0  0  0  0  0
    2.7441   -0.4910   33.4262 C   0  0  0  0  0  0  0  0  0  0  0  0
    3.2414   -1.4676   32.5783 C   0  0  0  0  0  0  0  0  0  0  0  0
    0.1293   -5.4471   32.2335 C   0  0  0  0  0  0  0  0  0  0  0  0
    0.5081   -4.5188   33.1902 C   0  0  0  0  0  0  0  0  0  0  0  0
    0.4832   -4.8942   34.5308 C   0  0  0  0  0  0  0  0  0  0  0  0
    0.0216   -6.1697   34.8998 C   0  0  0  0  0  0  0  0  0  0  0  0
    0.0636   -6.5777   36.6184 S   0  0  0  0  0  0  0  0  0  0  0  0
    1.4302   -6.3778   37.0584 O   0  0  0  0  0  0  0  0  0  0  0  0
   -1.0561   -5.9008   37.2349 O   0  0  0  0  0  0  0  0  0  0  0  0
   -0.2145   -8.1304   36.7401 F   0  0  0  0  0  0  0  0  0  0  0  0
   -0.4465   -7.0858   33.9558 C   0  0  0  0  0  0  0  0  0  0  0  0
   -0.3784   -6.6903   32.6313 C   0  0  0  0  0  0  0  0  0  0  0  0
   -0.8812   -6.7809   29.4343 H   0  0  0  0  0  0  0  0  0  0  0  0
   -0.6786   -4.5202   30.5060 H   0  0  0  0  0  0  0  0  0  0  0  0
    1.8818   -5.9970   29.7878 H   0  0  0  0  0  0  0  0  0  0  0  0
    1.0302   -4.7305   28.9331 H   0  0  0  0  0  0  0  0  0  0  0  0
    2.8958   -3.6195   29.6536 H   0  0  0  0  0  0  0  0  0  0  0  0
    1.7301   -3.1628   30.9045 H   0  0  0  0  0  0  0  0  0  0  0  0
    2.7604   -5.2603   32.1561 H   0  0  0  0  0  0  0  0  0  0  0  0
    4.0747   -3.8197   34.9325 H   0  0  0  0  0  0  0  0  0  0  0  0
    3.1812   -2.0756   36.4268 H   0  0  0  0  0  0  0  0  0  0  0  0
    2.4735    0.0723   36.5241 H   0  0  0  0  0  0  0  0  0  0  0  0
    2.4051    0.4637   33.0319 H   0  0  0  0  0  0  0  0  0  0  0  0
    3.3087   -1.2701   31.5112 H   0  0  0  0  0  0  0  0  0  0  0  0
    0.8006   -3.5068   32.9281 H   0  0  0  0  0  0  0  0  0  0  0  0
    0.7940   -4.1826   35.2957 H   0  0  0  0  0  0  0  0  0  0  0  0
   -0.8572   -8.0519   34.2330 H   0  0  0  0  0  0  0  0  0  0  0  0
  1  2  2  0
  2  3  1  0
  3  4  1  0
  4  5  1  0
  5  6  1  0
  6  7  1  0
  7  8  1  0
  8  9  2  0
  8 10  2  0
  8 11  1  0
 11 12  2  0
 12 13  1  0
 13 14  2  0
 14 15  1  0
 14 16  1  0
 16 17  2  0
  4 18  1  0
 18 19  2  0
 19 20  1  0
 20 21  2  0
 21 22  1  0
 22 23  2  0
 22 24  2  0
 22 25  1  0
 21 26  1  0
 26 27  2  0
 27  2  1  0
 17 11  1  0
 27 18  1  0
  3 28  1  0
  4 29  1  0
  5 30  1  0
  5 31  1  0
  6 32  1  0
  6 33  1  0
  7 34  1  0
 12 35  1  0
 13 36  1  0
 15 37  1  0
 16 38  1  0
 17 39  1  0
 19 40  1  0
 20 41  1  0
 26 42  1  0
M  END
>  <Energy>  (666) 
-10.272383378315379

>  <compound_id>  (666) 
2770

>  <target_id>  (666) 
1

>  <reference_id>  (666) 
183

>  <inspiration_ids>  (666) 
[183, 133]

>  <energy_score>  (666) 
-48.06756813843113

>  <distance_score>  (666) 
1.3131836641510908

>  <path>  (666) 
/opt/xchem-fragalysis-2/maxwin/BulkDock/SCRATCH/505736/C2770-P183/C2770-P183.minimised.mol

>  <scratch_subdir>  (666) 
/opt/xchem-fragalysis-2/maxwin/BulkDock/SCRATCH/505736/C2770-P183

>  <fragmenstein_runtime>  (666) 
1.9589428901672363

>  <fragmenstein_outcome>  (666) 
too moved

>  <fragmenstein_mode>  (666) 
expansion

>  <fragmenstein_error>  (666) 


$$$$
C2770-P133
     RDKit          3D

 42 44  0  0  0  0  0  0  0  0999 V2000
   -1.4540   -8.4460   31.3708 O   0  0  0  0  0  0  0  0  0  0  0  0
   -0.8200   -7.4136   31.4123 C   0  0  0  0  0  0  0  0  0  0  0  0
   -0.4580   -6.6430   30.3316 N   0  0  0  0  0  0  0  0  0  0  0  0
    0.0840   -5.3429   30.6955 C   0  0  0  0  0  0  0  0  0  0  0  0
    1.3559   -5.0869   29.8785 C   0  0  0  0  0  0  0  0  0  0  0  0
    2.3024   -4.0262   30.4181 C   0  0  0  0  0  0  0  0  0  0  0  0
    3.1893   -4.6599   31.3924 N   0  0  0  0  0  0  0  0  0  0  0  0
    4.5133   -3.8286   31.9964 S   0  0  0  0  0  0  0  0  0  0  0  0
    5.1343   -3.1061   30.9115 O   0  0  0  0  0  0  0  0  0  0  0  0
    5.2383   -4.7763   32.8124 O   0  0  0  0  0  0  0  0  0  0  0  0
    3.7211   -2.6753   33.0787 C   0  0  0  0  0  0  0  0  0  0  0  0
    3.6982   -2.9218   34.4601 C   0  0  0  0  0  0  0  0  0  0  0  0
    3.1982   -1.9484   35.3137 C   0  0  0  0  0  0  0  0  0  0  0  0
    2.7500   -0.7477   34.7730 C   0  0  0  0  0  0  0  0  0  0  0  0
    2.3618    0.2776   35.5751 O   0  0  0  0  0  0  0  0  0  0  0  0
    2.7291   -0.5179   33.4008 C   0  0  0  0  0  0  0  0  0  0  0  0
    3.2267   -1.4849   32.5414 C   0  0  0  0  0  0  0  0  0  0  0  0
    0.1543   -5.4668   32.1916 C   0  0  0  0  0  0  0  0  0  0  0  0
    0.5261   -4.5238   33.1363 C   0  0  0  0  0  0  0  0  0  0  0  0
    0.4956   -4.8789   34.4830 C   0  0  0  0  0  0  0  0  0  0  0  0
    0.0342   -6.1491   34.8702 C   0  0  0  0  0  0  0  0  0  0  0  0
    0.0769   -6.5356   36.5938 S   0  0  0  0  0  0  0  0  0  0  0  0
    1.4407   -6.3180   37.0342 O   0  0  0  0  0  0  0  0  0  0  0  0
   -1.0507   -5.8635   37.2009 O   0  0  0  0  0  0  0  0  0  0  0  0
   -0.1853   -8.0897   36.7321 F   0  0  0  0  0  0  0  0  0  0  0  0
   -0.4302   -7.0790   33.9387 C   0  0  0  0  0  0  0  0  0  0  0  0
   -0.3545   -6.7034   32.6086 C   0  0  0  0  0  0  0  0  0  0  0  0
   -0.8521   -6.8493   29.4205 H   0  0  0  0  0  0  0  0  0  0  0  0
   -0.6694   -4.5860   30.4487 H   0  0  0  0  0  0  0  0  0  0  0  0
    1.9070   -6.0230   29.7238 H   0  0  0  0  0  0  0  0  0  0  0  0
    1.0372   -4.7668   28.8790 H   0  0  0  0  0  0  0  0  0  0  0  0
    2.9066   -3.6455   29.5873 H   0  0  0  0  0  0  0  0  0  0  0  0
    1.7447   -3.1899   30.8418 H   0  0  0  0  0  0  0  0  0  0  0  0
    2.7858   -5.2701   32.1011 H   0  0  0  0  0  0  0  0  0  0  0  0
    4.1052   -3.8428   34.8726 H   0  0  0  0  0  0  0  0  0  0  0  0
    3.2099   -2.1173   36.3866 H   0  0  0  0  0  0  0  0  0  0  0  0
    2.4873    0.0249   36.5052 H   0  0  0  0  0  0  0  0  0  0  0  0
    2.3787    0.4365   33.0160 H   0  0  0  0  0  0  0  0  0  0  0  0
    3.2834   -1.2788   31.4753 H   0  0  0  0  0  0  0  0  0  0  0  0
    0.8170   -3.5149   32.8612 H   0  0  0  0  0  0  0  0  0  0  0  0
    0.8027   -4.1554   35.2382 H   0  0  0  0  0  0  0  0  0  0  0  0
   -0.8415   -8.0415   34.2289 H   0  0  0  0  0  0  0  0  0  0  0  0
  1  2  2  0
  2  3  1  0
  3  4  1  0
  4  5  1  0
  5  6  1  0
  6  7  1  0
  7  8  1  0
  8  9  2  0
  8 10  2  0
  8 11  1  0
 11 12  2  0
 12 13  1  0
 13 14  2  0
 14 15  1  0
 14 16  1  0
 16 17  2  0
  4 18  1  0
 18 19  2  0
 19 20  1  0
 20 21  2  0
 21 22  1  0
 22 23  2  0
 22 24  2  0
 22 25  1  0
 21 26  1  0
 26 27  2  0
 27  2  1  0
 17 11  1  0
 27 18  1  0
  3 28  1  0
  4 29  1  0
  5 30  1  0
  5 31  1  0
  6 32  1  0
  6 33  1  0
  7 34  1  0
 12 35  1  0
 13 36  1  0
 15 37  1  0
 16 38  1  0
 17 39  1  0
 19 40  1  0
 20 41  1  0
 26 42  1  0
M  END
>  <Energy>  (667) 
-10.004929006542822

>  <compound_id>  (667) 
2770

>  <target_id>  (667) 
1

>  <reference_id>  (667) 
133

>  <inspiration_ids>  (667) 
[183, 133]

>  <energy_score>  (667) 
-47.80011376665858

>  <distance_score>  (667) 
1.3067094742115313

>  <path>  (667) 
/opt/xchem-fragalysis-2/maxwin/BulkDock/SCRATCH/505736/C2770-P133/C2770-P133.minimised.mol

>  <scratch_subdir>  (667) 
/opt/xchem-fragalysis-2/maxwin/BulkDock/SCRATCH/505736/C2770-P133

>  <fragmenstein_runtime>  (667) 
1.9802565574645996

>  <fragmenstein_outcome>  (667) 
too moved

>  <fragmenstein_mode>  (667) 
expansion

>  <fragmenstein_error>  (667) 


$$$$
C2770-P183
     RDKit          2D

  0  0  0  0  0  0  0  0  0  0999 V2000
M  END
>  <compound_id>  (668) 
2770

>  <target_id>  (668) 
1

>  <reference_id>  (668) 
183

>  <inspiration_ids>  (668) 
[183, 134]

>  <energy_score>  (668) 
nan

>  <distance_score>  (668) 
nan

>  <path>  (668) 
/opt/xchem-fragalysis-2/maxwin/BulkDock/SCRATCH/505736/C2770-P183/C2770-P183.minimised.mol

>  <scratch_subdir>  (668) 
/opt/xchem-fragalysis-2/maxwin/BulkDock/SCRATCH/505736/C2770-P183

>  <fragmenstein_runtime>  (668) 
0.18064355850219727

>  <fragmenstein_outcome>  (668) 
crashed

>  <fragmenstein_mode>  (668) 
expansion

>  <fragmenstein_error>  (668) 
PoisonError: None has poison atoms [0, 1, 2, 26, 10, 15, 11, 12]

$$$$
C2772-P183
     RDKit          3D

 41 43  0  0  0  0  0  0  0  0999 V2000
    3.1567   -4.1051   30.9141 C   0  0  0  0  0  0  0  0  0  0  0  0
    3.4833   -3.0872   31.8762 N   0  0  0  0  0  0  0  0  0  0  0  0
    4.3342   -3.2170   32.9337 C   0  0  0  0  0  0  0  0  0  0  0  0
    4.2567   -2.0351   33.6331 C   0  0  0  0  0  0  0  0  0  0  0  0
    3.3053   -1.2699   32.9262 C   0  0  0  0  0  0  0  0  0  0  0  0
    2.5923    0.2139   33.4830 S   0  0  0  0  0  0  0  0  0  0  0  0
    2.9810    1.2094   32.5103 O   0  0  0  0  0  0  0  0  0  0  0  0
    2.9697    0.2981   34.8731 O   0  0  0  0  0  0  0  0  0  0  0  0
    0.9212   -0.0162   33.3333 N   0  0  0  0  0  0  0  0  0  0  0  0
    0.2528   -1.1767   33.9733 C   0  0  0  0  0  0  0  0  0  0  0  0
   -0.5364   -2.1325   32.9743 C   0  0  0  0  0  0  0  0  0  0  0  0
    0.0977   -3.4645   32.4173 C   0  0  0  0  0  0  0  0  0  0  0  0
   -0.8127   -4.3266   31.6335 N   0  0  0  0  0  0  0  0  0  0  0  0
   -0.8508   -5.6416   32.0879 C   0  0  0  0  0  0  0  0  0  0  0  0
   -1.3053   -6.6355   31.5542 O   0  0  0  0  0  0  0  0  0  0  0  0
   -0.1593   -5.6429   33.3673 C   0  0  0  0  0  0  0  0  0  0  0  0
   -0.1916   -6.5797   34.3750 C   0  0  0  0  0  0  0  0  0  0  0  0
    0.5227   -6.2292   35.5169 C   0  0  0  0  0  0  0  0  0  0  0  0
    0.2595   -7.0681   37.0307 S   0  0  0  0  0  0  0  0  0  0  0  0
    1.5720   -7.3524   37.5713 O   0  0  0  0  0  0  0  0  0  0  0  0
   -0.7376   -6.2982   37.7436 O   0  0  0  0  0  0  0  0  0  0  0  0
   -0.4051   -8.4473   36.6586 F   0  0  0  0  0  0  0  0  0  0  0  0
    1.3787   -5.1219   35.5714 C   0  0  0  0  0  0  0  0  0  0  0  0
    1.3962   -4.2238   34.5253 C   0  0  0  0  0  0  0  0  0  0  0  0
    0.5259   -4.4293   33.4786 C   0  0  0  0  0  0  0  0  0  0  0  0
    2.8362   -1.9164   31.8458 N   0  0  0  0  0  0  0  0  0  0  0  0
    4.0872   -4.4444   30.4518 H   0  0  0  0  0  0  0  0  0  0  0  0
    2.6633   -4.9325   31.4273 H   0  0  0  0  0  0  0  0  0  0  0  0
    2.5052   -3.6933   30.1389 H   0  0  0  0  0  0  0  0  0  0  0  0
    4.9087   -4.1179   33.1016 H   0  0  0  0  0  0  0  0  0  0  0  0
    4.7679   -1.7749   34.5506 H   0  0  0  0  0  0  0  0  0  0  0  0
    0.6272    0.1912   32.3769 H   0  0  0  0  0  0  0  0  0  0  0  0
   -0.5123   -0.7243   34.6195 H   0  0  0  0  0  0  0  0  0  0  0  0
    0.9152   -1.6926   34.6593 H   0  0  0  0  0  0  0  0  0  0  0  0
   -0.8834   -1.5392   32.1185 H   0  0  0  0  0  0  0  0  0  0  0  0
   -1.4489   -2.4323   33.5104 H   0  0  0  0  0  0  0  0  0  0  0  0
    0.8899   -3.2243   31.7258 H   0  0  0  0  0  0  0  0  0  0  0  0
   -1.0214   -4.1282   30.6613 H   0  0  0  0  0  0  0  0  0  0  0  0
   -0.8216   -7.4613   34.3131 H   0  0  0  0  0  0  0  0  0  0  0  0
    1.9586   -4.9109   36.4702 H   0  0  0  0  0  0  0  0  0  0  0  0
    2.0174   -3.3452   34.6125 H   0  0  0  0  0  0  0  0  0  0  0  0
  1  2  1  0
  2  3  1  0
  3  4  2  0
  4  5  1  0
  5  6  1  0
  6  7  2  0
  6  8  2  0
  6  9  1  0
  9 10  1  0
 10 11  1  0
 11 12  1  0
 12 13  1  0
 13 14  1  0
 14 15  2  0
 14 16  1  0
 16 17  2  0
 17 18  1  0
 18 19  1  0
 19 20  2  0
 19 21  2  0
 19 22  1  0
 18 23  2  0
 23 24  1  0
 24 25  2  0
  5 26  2  0
 26  2  1  0
 25 12  1  0
 25 16  1  0
  1 27  1  0
  1 28  1  0
  1 29  1  0
  3 30  1  0
  4 31  1  0
  9 32  1  0
 10 33  1  0
 10 34  1  0
 11 35  1  0
 11 36  1  0
 12 37  1  0
 13 38  1  0
 17 39  1  0
 23 40  1  0
 24 41  1  0
M  END
>  <Energy>  (669) 
81.307522463727921

>  <compound_id>  (669) 
2772

>  <target_id>  (669) 
1

>  <reference_id>  (669) 
183

>  <inspiration_ids>  (669) 
[183, 136]

>  <energy_score>  (669) 
-19.268520123717423

>  <distance_score>  (669) 
1.837961953083105

>  <path>  (669) 
/opt/xchem-fragalysis-2/maxwin/BulkDock/SCRATCH/505736/C2772-P183/C2772-P183.minimised.mol

>  <scratch_subdir>  (669) 
/opt/xchem-fragalysis-2/maxwin/BulkDock/SCRATCH/505736/C2772-P183

>  <fragmenstein_runtime>  (669) 
3.882375478744507

>  <fragmenstein_outcome>  (669) 
too moved

>  <fragmenstein_mode>  (669) 
expansion

>  <fragmenstein_error>  (669) 


$$$$
C2772-P136
     RDKit          3D

 41 43  0  0  0  0  0  0  0  0999 V2000
    3.1864   -4.2455   31.0576 C   0  0  0  0  0  0  0  0  0  0  0  0
    3.5041   -3.1792   31.9695 N   0  0  0  0  0  0  0  0  0  0  0  0
    4.3597   -3.2529   33.0289 C   0  0  0  0  0  0  0  0  0  0  0  0
    4.2739   -2.0414   33.6745 C   0  0  0  0  0  0  0  0  0  0  0  0
    3.3167   -1.3154   32.9351 C   0  0  0  0  0  0  0  0  0  0  0  0
    2.6032    0.1932   33.4214 S   0  0  0  0  0  0  0  0  0  0  0  0
    3.0307    1.1498   32.4260 O   0  0  0  0  0  0  0  0  0  0  0  0
    2.9435    0.3225   34.8176 O   0  0  0  0  0  0  0  0  0  0  0  0
    0.9347   -0.0192   33.2343 N   0  0  0  0  0  0  0  0  0  0  0  0
    0.2254   -1.1411   33.8959 C   0  0  0  0  0  0  0  0  0  0  0  0
   -0.5662   -2.1085   32.9091 C   0  0  0  0  0  0  0  0  0  0  0  0
    0.0605   -3.4510   32.3698 C   0  0  0  0  0  0  0  0  0  0  0  0
   -0.8586   -4.3228   31.6045 N   0  0  0  0  0  0  0  0  0  0  0  0
   -0.9037   -5.6291   32.0821 C   0  0  0  0  0  0  0  0  0  0  0  0
   -1.3689   -6.6303   31.5714 O   0  0  0  0  0  0  0  0  0  0  0  0
   -0.1990   -5.6149   33.3543 C   0  0  0  0  0  0  0  0  0  0  0  0
   -0.2165   -6.5437   34.3696 C   0  0  0  0  0  0  0  0  0  0  0  0
    0.5073   -6.1820   35.5023 C   0  0  0  0  0  0  0  0  0  0  0  0
    0.2722   -7.0217   37.0188 S   0  0  0  0  0  0  0  0  0  0  0  0
    1.5938   -7.3207   37.5281 O   0  0  0  0  0  0  0  0  0  0  0  0
   -0.7021   -6.2456   37.7563 O   0  0  0  0  0  0  0  0  0  0  0  0
   -0.4148   -8.3892   36.6488 F   0  0  0  0  0  0  0  0  0  0  0  0
    1.3520   -5.0672   35.5459 C   0  0  0  0  0  0  0  0  0  0  0  0
    1.3533   -4.1773   34.4935 C   0  0  0  0  0  0  0  0  0  0  0  0
    0.4841   -4.3992   33.4484 C   0  0  0  0  0  0  0  0  0  0  0  0
    2.8518   -2.0133   31.8847 N   0  0  0  0  0  0  0  0  0  0  0  0
    4.1190   -4.5903   30.6034 H   0  0  0  0  0  0  0  0  0  0  0  0
    2.7158   -5.0598   31.6116 H   0  0  0  0  0  0  0  0  0  0  0  0
    2.5224   -3.8818   30.2695 H   0  0  0  0  0  0  0  0  0  0  0  0
    4.9415   -4.1406   33.2367 H   0  0  0  0  0  0  0  0  0  0  0  0
    4.7851   -1.7360   34.5780 H   0  0  0  0  0  0  0  0  0  0  0  0
    0.6654    0.1670   32.2665 H   0  0  0  0  0  0  0  0  0  0  0  0
   -0.5437   -0.6493   34.5078 H   0  0  0  0  0  0  0  0  0  0  0  0
    0.8562   -1.6499   34.6162 H   0  0  0  0  0  0  0  0  0  0  0  0
   -0.9094   -1.5249   32.0451 H   0  0  0  0  0  0  0  0  0  0  0  0
   -1.4809   -2.3959   33.4485 H   0  0  0  0  0  0  0  0  0  0  0  0
    0.8538   -3.2272   31.6712 H   0  0  0  0  0  0  0  0  0  0  0  0
   -1.0837   -4.1357   30.6337 H   0  0  0  0  0  0  0  0  0  0  0  0
   -0.8397   -7.4311   34.3192 H   0  0  0  0  0  0  0  0  0  0  0  0
    1.9363   -4.8455   36.4390 H   0  0  0  0  0  0  0  0  0  0  0  0
    1.9663   -3.2927   34.5727 H   0  0  0  0  0  0  0  0  0  0  0  0
  1  2  1  0
  2  3  1  0
  3  4  2  0
  4  5  1  0
  5  6  1  0
  6  7  2  0
  6  8  2  0
  6  9  1  0
  9 10  1  0
 10 11  1  0
 11 12  1  0
 12 13  1  0
 13 14  1  0
 14 15  2  0
 14 16  1  0
 16 17  2  0
 17 18  1  0
 18 19  1  0
 19 20  2  0
 19 21  2  0
 19 22  1  0
 18 23  2  0
 23 24  1  0
 24 25  2  0
  5 26  2  0
 26  2  1  0
 25 12  1  0
 25 16  1  0
  1 27  1  0
  1 28  1  0
  1 29  1  0
  3 30  1  0
  4 31  1  0
  9 32  1  0
 10 33  1  0
 10 34  1  0
 11 35  1  0
 11 36  1  0
 12 37  1  0
 13 38  1  0
 17 39  1  0
 23 40  1  0
 24 41  1  0
M  END
>  <Energy>  (670) 
80.299751285916926

>  <compound_id>  (670) 
2772

>  <target_id>  (670) 
1

>  <reference_id>  (670) 
136

>  <inspiration_ids>  (670) 
[183, 136]

>  <energy_score>  (670) 
-20.276291301529312

>  <distance_score>  (670) 
1.831966357619975

>  <path>  (670) 
/opt/xchem-fragalysis-2/maxwin/BulkDock/SCRATCH/505736/C2772-P136/C2772-P136.minimised.mol

>  <scratch_subdir>  (670) 
/opt/xchem-fragalysis-2/maxwin/BulkDock/SCRATCH/505736/C2772-P136

>  <fragmenstein_runtime>  (670) 
3.9184391498565674

>  <fragmenstein_outcome>  (670) 
too moved

>  <fragmenstein_mode>  (670) 
expansion

>  <fragmenstein_error>  (670) 


$$$$
C2772-P183
     RDKit          2D

  0  0  0  0  0  0  0  0  0  0999 V2000
M  END
>  <compound_id>  (671) 
2772

>  <target_id>  (671) 
1

>  <reference_id>  (671) 
183

>  <inspiration_ids>  (671) 
[183, 140]

>  <energy_score>  (671) 
nan

>  <distance_score>  (671) 
nan

>  <path>  (671) 
/opt/xchem-fragalysis-2/maxwin/BulkDock/SCRATCH/505736/C2772-P183/C2772-P183.minimised.mol

>  <scratch_subdir>  (671) 
/opt/xchem-fragalysis-2/maxwin/BulkDock/SCRATCH/505736/C2772-P183

>  <fragmenstein_runtime>  (671) 
0.27495265007019043

>  <fragmenstein_outcome>  (671) 
crashed

>  <fragmenstein_mode>  (671) 
expansion

>  <fragmenstein_error>  (671) 
PoisonError: None has poison atoms [13, 0]

$$$$
C2773-P183
     RDKit          3D

 37 39  0  0  0  0  0  0  0  0999 V2000
   -0.9315   -7.3631   30.7029 O   0  0  0  0  0  0  0  0  0  0  0  0
   -0.4868   -6.2421   30.8631 C   0  0  0  0  0  0  0  0  0  0  0  0
   -0.1984   -5.2803   29.9125 N   0  0  0  0  0  0  0  0  0  0  0  0
    0.2652   -3.9794   30.4331 C   0  0  0  0  0  0  0  0  0  0  0  0
   -0.5446   -2.7688   29.7785 C   0  0  0  0  0  0  0  0  0  0  0  0
    0.2416   -1.4659   29.4275 C   0  0  0  0  0  0  0  0  0  0  0  0
   -0.2556   -0.7855   28.1947 N   0  0  0  0  0  0  0  0  0  0  0  0
   -1.1670    0.6211   28.2879 S   0  0  0  0  0  0  0  0  0  0  0  0
   -2.0793    0.4439   29.3906 O   0  0  0  0  0  0  0  0  0  0  0  0
   -1.6025    1.0095   26.9640 O   0  0  0  0  0  0  0  0  0  0  0  0
   -0.1162    1.9312   28.7824 C   0  0  0  0  0  0  0  0  0  0  0  0
   -0.3710    3.2513   28.4617 C   0  0  0  0  0  0  0  0  0  0  0  0
    0.8905    4.2463   29.0581 S   0  0  0  0  0  0  0  0  0  0  0  0
    1.6482    2.8611   29.7269 C   0  0  0  0  0  0  0  0  0  0  0  0
    1.0542    1.7065   29.5190 N   0  0  0  0  0  0  0  0  0  0  0  0
    0.2099   -4.2993   31.9257 C   0  0  0  0  0  0  0  0  0  0  0  0
    0.5990   -3.5538   33.0239 C   0  0  0  0  0  0  0  0  0  0  0  0
    0.5457   -4.1446   34.3090 C   0  0  0  0  0  0  0  0  0  0  0  0
    0.0988   -5.4730   34.4938 C   0  0  0  0  0  0  0  0  0  0  0  0
    0.0779   -6.1702   36.1333 S   0  0  0  0  0  0  0  0  0  0  0  0
    1.3701   -5.9003   36.7323 O   0  0  0  0  0  0  0  0  0  0  0  0
   -1.1669   -5.7762   36.7568 O   0  0  0  0  0  0  0  0  0  0  0  0
    0.0136   -7.7507   35.9783 F   0  0  0  0  0  0  0  0  0  0  0  0
   -0.2804   -6.2460   33.4023 C   0  0  0  0  0  0  0  0  0  0  0  0
   -0.2008   -5.6311   32.1543 C   0  0  0  0  0  0  0  0  0  0  0  0
   -0.3356   -5.4779   28.9247 H   0  0  0  0  0  0  0  0  0  0  0  0
    1.3166   -3.9079   30.1303 H   0  0  0  0  0  0  0  0  0  0  0  0
   -0.9756   -3.1439   28.8419 H   0  0  0  0  0  0  0  0  0  0  0  0
   -1.3968   -2.5129   30.4200 H   0  0  0  0  0  0  0  0  0  0  0  0
    0.2463   -0.7880   30.2862 H   0  0  0  0  0  0  0  0  0  0  0  0
    1.2870   -1.7262   29.2259 H   0  0  0  0  0  0  0  0  0  0  0  0
   -0.5760   -1.3709   27.4142 H   0  0  0  0  0  0  0  0  0  0  0  0
   -1.2123    3.6592   27.9157 H   0  0  0  0  0  0  0  0  0  0  0  0
    2.5724    2.9456   30.2835 H   0  0  0  0  0  0  0  0  0  0  0  0
    0.9539   -2.5322   32.9133 H   0  0  0  0  0  0  0  0  0  0  0  0
    0.8523   -3.5551   35.1740 H   0  0  0  0  0  0  0  0  0  0  0  0
   -0.6150   -7.2751   33.4963 H   0  0  0  0  0  0  0  0  0  0  0  0
  1  2  2  0
  2  3  1  0
  3  4  1  0
  4  5  1  0
  5  6  1  0
  6  7  1  0
  7  8  1  0
  8  9  2  0
  8 10  2  0
  8 11  1  0
 11 12  2  0
 12 13  1  0
 13 14  1  0
 14 15  2  0
  4 16  1  0
 16 17  2  0
 17 18  1  0
 18 19  2  0
 19 20  1  0
 20 21  2  0
 20 22  2  0
 20 23  1  0
 19 24  1  0
 24 25  2  0
 25  2  1  0
 15 11  1  0
 25 16  1  0
  3 26  1  0
  4 27  1  0
  5 28  1  0
  5 29  1  0
  6 30  1  0
  6 31  1  0
  7 32  1  0
 12 33  1  0
 14 34  1  0
 17 35  1  0
 18 36  1  0
 24 37  1  0
M  END
>  <Energy>  (672) 
40.910191699056071

>  <compound_id>  (672) 
2773

>  <target_id>  (672) 
1

>  <reference_id>  (672) 
183

>  <inspiration_ids>  (672) 
[183, 141]

>  <energy_score>  (672) 
-98.09910389535148

>  <distance_score>  (672) 
1.6064107986735767

>  <path>  (672) 
/opt/xchem-fragalysis-2/maxwin/BulkDock/SCRATCH/505736/C2773-P183/C2773-P183.minimised.mol

>  <scratch_subdir>  (672) 
/opt/xchem-fragalysis-2/maxwin/BulkDock/SCRATCH/505736/C2773-P183

>  <fragmenstein_runtime>  (672) 
6.191079378128052

>  <fragmenstein_outcome>  (672) 
too moved

>  <fragmenstein_mode>  (672) 
expansion

>  <fragmenstein_error>  (672) 


$$$$
C2773-P141
     RDKit          3D

 37 39  0  0  0  0  0  0  0  0999 V2000
   -1.0339   -7.2950   30.7476 O   0  0  0  0  0  0  0  0  0  0  0  0
   -0.4866   -6.2241   30.9380 C   0  0  0  0  0  0  0  0  0  0  0  0
   -0.1894   -5.2229   30.0186 N   0  0  0  0  0  0  0  0  0  0  0  0
    0.5853   -4.1095   30.5647 C   0  0  0  0  0  0  0  0  0  0  0  0
    0.0841   -2.6580   30.1920 C   0  0  0  0  0  0  0  0  0  0  0  0
    0.3047   -2.2213   28.7288 C   0  0  0  0  0  0  0  0  0  0  0  0
    0.2420   -0.7555   28.4146 N   0  0  0  0  0  0  0  0  0  0  0  0
   -1.2232    0.0402   28.7133 S   0  0  0  0  0  0  0  0  0  0  0  0
   -2.2751   -0.9029   28.4301 O   0  0  0  0  0  0  0  0  0  0  0  0
   -1.1764    1.3615   28.1315 O   0  0  0  0  0  0  0  0  0  0  0  0
   -1.2316    0.2405   30.4657 C   0  0  0  0  0  0  0  0  0  0  0  0
   -2.1685   -0.3415   31.2989 C   0  0  0  0  0  0  0  0  0  0  0  0
   -1.7117   -0.1496   32.9414 S   0  0  0  0  0  0  0  0  0  0  0  0
   -0.3107    0.7007   32.4338 C   0  0  0  0  0  0  0  0  0  0  0  0
   -0.1469    0.8240   31.1362 N   0  0  0  0  0  0  0  0  0  0  0  0
    0.5628   -4.4843   32.0409 C   0  0  0  0  0  0  0  0  0  0  0  0
    1.0836   -3.8167   33.1353 C   0  0  0  0  0  0  0  0  0  0  0  0
    0.9512   -4.3987   34.4086 C   0  0  0  0  0  0  0  0  0  0  0  0
    0.3028   -5.6412   34.5783 C   0  0  0  0  0  0  0  0  0  0  0  0
    0.1668   -6.3102   36.2192 S   0  0  0  0  0  0  0  0  0  0  0  0
    1.4736   -6.1996   36.8340 O   0  0  0  0  0  0  0  0  0  0  0  0
   -1.0292   -5.7566   36.8130 O   0  0  0  0  0  0  0  0  0  0  0  0
   -0.0975   -7.8708   36.0698 F   0  0  0  0  0  0  0  0  0  0  0  0
   -0.1974   -6.3440   33.4834 C   0  0  0  0  0  0  0  0  0  0  0  0
   -0.0470   -5.7346   32.2418 C   0  0  0  0  0  0  0  0  0  0  0  0
   -0.3632   -5.3681   29.0270 H   0  0  0  0  0  0  0  0  0  0  0  0
    1.6122   -4.2363   30.2000 H   0  0  0  0  0  0  0  0  0  0  0  0
   -0.9830   -2.6082   30.4282 H   0  0  0  0  0  0  0  0  0  0  0  0
    0.6078   -1.9503   30.8439 H   0  0  0  0  0  0  0  0  0  0  0  0
    1.3051   -2.5476   28.4196 H   0  0  0  0  0  0  0  0  0  0  0  0
   -0.4043   -2.7552   28.0912 H   0  0  0  0  0  0  0  0  0  0  0  0
    0.4537   -0.5850   27.4284 H   0  0  0  0  0  0  0  0  0  0  0  0
   -3.0449   -0.9042   31.0246 H   0  0  0  0  0  0  0  0  0  0  0  0
    0.3994    1.1015   33.1464 H   0  0  0  0  0  0  0  0  0  0  0  0
    1.5825   -2.8570   33.0261 H   0  0  0  0  0  0  0  0  0  0  0  0
    1.3483   -3.8717   35.2771 H   0  0  0  0  0  0  0  0  0  0  0  0
   -0.6974   -7.3028   33.5773 H   0  0  0  0  0  0  0  0  0  0  0  0
  1  2  2  0
  2  3  1  0
  3  4  1  0
  4  5  1  0
  5  6  1  0
  6  7  1  0
  7  8  1  0
  8  9  2  0
  8 10  2  0
  8 11  1  0
 11 12  2  0
 12 13  1  0
 13 14  1  0
 14 15  2  0
  4 16  1  0
 16 17  2  0
 17 18  1  0
 18 19  2  0
 19 20  1  0
 20 21  2  0
 20 22  2  0
 20 23  1  0
 19 24  1  0
 24 25  2  0
 25  2  1  0
 15 11  1  0
 25 16  1  0
  3 26  1  0
  4 27  1  0
  5 28  1  0
  5 29  1  0
  6 30  1  0
  6 31  1  0
  7 32  1  0
 12 33  1  0
 14 34  1  0
 17 35  1  0
 18 36  1  0
 24 37  1  0
M  END
>  <Energy>  (673) 
39.019221404914468

>  <compound_id>  (673) 
2773

>  <target_id>  (673) 
1

>  <reference_id>  (673) 
141

>  <inspiration_ids>  (673) 
[183, 141]

>  <energy_score>  (673) 
-99.99007418949361

>  <distance_score>  (673) 
1.6235967440443833

>  <path>  (673) 
/opt/xchem-fragalysis-2/maxwin/BulkDock/SCRATCH/505736/C2773-P141/C2773-P141.minimised.mol

>  <scratch_subdir>  (673) 
/opt/xchem-fragalysis-2/maxwin/BulkDock/SCRATCH/505736/C2773-P141

>  <fragmenstein_runtime>  (673) 
5.701831817626953

>  <fragmenstein_outcome>  (673) 
too moved

>  <fragmenstein_mode>  (673) 
expansion

>  <fragmenstein_error>  (673) 


$$$$
C2773-P183
     RDKit          3D

 37 39  0  0  0  0  0  0  0  0999 V2000
   -0.9314   -7.3755   30.7153 O   0  0  0  0  0  0  0  0  0  0  0  0
   -0.4994   -6.2500   30.8790 C   0  0  0  0  0  0  0  0  0  0  0  0
   -0.2170   -5.2844   29.9307 N   0  0  0  0  0  0  0  0  0  0  0  0
    0.2054   -3.9710   30.4563 C   0  0  0  0  0  0  0  0  0  0  0  0
   -0.6487   -2.7881   29.8120 C   0  0  0  0  0  0  0  0  0  0  0  0
    0.0772   -1.4423   29.5003 C   0  0  0  0  0  0  0  0  0  0  0  0
   -0.4214   -0.7868   28.2601 N   0  0  0  0  0  0  0  0  0  0  0  0
   -1.2484    0.6677   28.3040 S   0  0  0  0  0  0  0  0  0  0  0  0
   -2.1480    0.5788   29.4270 O   0  0  0  0  0  0  0  0  0  0  0  0
   -1.6886    1.0247   26.9739 O   0  0  0  0  0  0  0  0  0  0  0  0
   -0.1306    1.9412   28.7377 C   0  0  0  0  0  0  0  0  0  0  0  0
   -0.3582    3.2684   28.4258 C   0  0  0  0  0  0  0  0  0  0  0  0
    0.9530    4.2250   28.9757 S   0  0  0  0  0  0  0  0  0  0  0  0
    1.6976    2.8159   29.6085 C   0  0  0  0  0  0  0  0  0  0  0  0
    1.0587    1.6803   29.4311 N   0  0  0  0  0  0  0  0  0  0  0  0
    0.1610   -4.2975   31.9468 C   0  0  0  0  0  0  0  0  0  0  0  0
    0.5416   -3.5480   33.0451 C   0  0  0  0  0  0  0  0  0  0  0  0
    0.5030   -4.1427   34.3281 C   0  0  0  0  0  0  0  0  0  0  0  0
    0.0786   -5.4786   34.5103 C   0  0  0  0  0  0  0  0  0  0  0  0
    0.0720   -6.1772   36.1485 S   0  0  0  0  0  0  0  0  0  0  0  0
    1.3709   -5.9117   36.7350 O   0  0  0  0  0  0  0  0  0  0  0  0
   -1.1653   -5.7787   36.7837 O   0  0  0  0  0  0  0  0  0  0  0  0
    0.0001   -7.7571   35.9932 F   0  0  0  0  0  0  0  0  0  0  0  0
   -0.2918   -6.2556   33.4186 C   0  0  0  0  0  0  0  0  0  0  0  0
   -0.2259   -5.6368   32.1721 C   0  0  0  0  0  0  0  0  0  0  0  0
   -0.3521   -5.4796   28.9422 H   0  0  0  0  0  0  0  0  0  0  0  0
    1.2526   -3.8627   30.1504 H   0  0  0  0  0  0  0  0  0  0  0  0
   -1.5251   -2.5873   30.4405 H   0  0  0  0  0  0  0  0  0  0  0  0
   -1.0423   -3.1659   28.8602 H   0  0  0  0  0  0  0  0  0  0  0  0
    1.1413   -1.6424   29.3319 H   0  0  0  0  0  0  0  0  0  0  0  0
    0.0138   -0.7738   30.3643 H   0  0  0  0  0  0  0  0  0  0  0  0
   -0.6984   -1.3622   27.4567 H   0  0  0  0  0  0  0  0  0  0  0  0
   -1.2084    3.7025   27.9142 H   0  0  0  0  0  0  0  0  0  0  0  0
    2.6479    2.8718   30.1230 H   0  0  0  0  0  0  0  0  0  0  0  0
    0.8795   -2.5205   32.9354 H   0  0  0  0  0  0  0  0  0  0  0  0
    0.8026   -3.5506   35.1938 H   0  0  0  0  0  0  0  0  0  0  0  0
   -0.6084   -7.2904   33.5113 H   0  0  0  0  0  0  0  0  0  0  0  0
  1  2  2  0
  2  3  1  0
  3  4  1  0
  4  5  1  0
  5  6  1  0
  6  7  1  0
  7  8  1  0
  8  9  2  0
  8 10  2  0
  8 11  1  0
 11 12  2  0
 12 13  1  0
 13 14  1  0
 14 15  2  0
  4 16  1  0
 16 17  2  0
 17 18  1  0
 18 19  2  0
 19 20  1  0
 20 21  2  0
 20 22  2  0
 20 23  1  0
 19 24  1  0
 24 25  2  0
 25  2  1  0
 15 11  1  0
 25 16  1  0
  3 26  1  0
  4 27  1  0
  5 28  1  0
  5 29  1  0
  6 30  1  0
  6 31  1  0
  7 32  1  0
 12 33  1  0
 14 34  1  0
 17 35  1  0
 18 36  1  0
 24 37  1  0
M  END
>  <Energy>  (674) 
40.901663361817398

>  <compound_id>  (674) 
2773

>  <target_id>  (674) 
1

>  <reference_id>  (674) 
183

>  <inspiration_ids>  (674) 
[183, 142]

>  <energy_score>  (674) 
-98.10763223258854

>  <distance_score>  (674) 
1.6595621922838804

>  <path>  (674) 
/opt/xchem-fragalysis-2/maxwin/BulkDock/SCRATCH/505736/C2773-P183/C2773-P183.minimised.mol

>  <scratch_subdir>  (674) 
/opt/xchem-fragalysis-2/maxwin/BulkDock/SCRATCH/505736/C2773-P183

>  <fragmenstein_runtime>  (674) 
5.851370811462402

>  <fragmenstein_outcome>  (674) 
too moved

>  <fragmenstein_mode>  (674) 
expansion

>  <fragmenstein_error>  (674) 


$$$$
C2773-P142
     RDKit          3D

 37 39  0  0  0  0  0  0  0  0999 V2000
   -1.1054   -7.4821   30.7699 O   0  0  0  0  0  0  0  0  0  0  0  0
   -0.5770   -6.3936   30.8955 C   0  0  0  0  0  0  0  0  0  0  0  0
   -0.2668   -5.4725   29.9143 N   0  0  0  0  0  0  0  0  0  0  0  0
    0.3455   -4.2248   30.3811 C   0  0  0  0  0  0  0  0  0  0  0  0
   -0.3152   -2.9474   29.6998 C   0  0  0  0  0  0  0  0  0  0  0  0
    0.6679   -1.7871   29.4007 C   0  0  0  0  0  0  0  0  0  0  0  0
    0.2330   -0.7054   28.4458 N   0  0  0  0  0  0  0  0  0  0  0  0
   -1.2517    0.0713   28.6956 S   0  0  0  0  0  0  0  0  0  0  0  0
   -2.2298   -0.8872   28.2604 O   0  0  0  0  0  0  0  0  0  0  0  0
   -1.1810    1.4171   28.1751 O   0  0  0  0  0  0  0  0  0  0  0  0
   -1.3786    0.1961   30.4503 C   0  0  0  0  0  0  0  0  0  0  0  0
   -0.3842    0.8020   31.2031 C   0  0  0  0  0  0  0  0  0  0  0  0
   -0.6053    0.4455   32.8678 S   0  0  0  0  0  0  0  0  0  0  0  0
   -2.0299   -0.4270   32.4772 C   0  0  0  0  0  0  0  0  0  0  0  0
   -2.3282   -0.5059   31.2002 N   0  0  0  0  0  0  0  0  0  0  0  0
    0.3051   -4.4848   31.8824 C   0  0  0  0  0  0  0  0  0  0  0  0
    0.7680   -3.7298   32.9448 C   0  0  0  0  0  0  0  0  0  0  0  0
    0.6953   -4.2700   34.2493 C   0  0  0  0  0  0  0  0  0  0  0  0
    0.1589   -5.5569   34.4863 C   0  0  0  0  0  0  0  0  0  0  0  0
    0.1122   -6.1911   36.1502 S   0  0  0  0  0  0  0  0  0  0  0  0
    1.4186   -5.9582   36.7338 O   0  0  0  0  0  0  0  0  0  0  0  0
   -1.1086   -5.7106   36.7606 O   0  0  0  0  0  0  0  0  0  0  0  0
   -0.0303   -7.7695   36.0537 F   0  0  0  0  0  0  0  0  0  0  0  0
   -0.2932   -6.3406   33.4299 C   0  0  0  0  0  0  0  0  0  0  0  0
   -0.1965   -5.7761   32.1610 C   0  0  0  0  0  0  0  0  0  0  0  0
   -0.5288   -5.6347   28.9452 H   0  0  0  0  0  0  0  0  0  0  0  0
    1.3920   -4.2879   30.0573 H   0  0  0  0  0  0  0  0  0  0  0  0
   -1.1523   -2.6159   30.3175 H   0  0  0  0  0  0  0  0  0  0  0  0
   -0.7421   -3.2603   28.7386 H   0  0  0  0  0  0  0  0  0  0  0  0
    1.5598   -2.2251   28.9335 H   0  0  0  0  0  0  0  0  0  0  0  0
    1.0203   -1.3387   30.3333 H   0  0  0  0  0  0  0  0  0  0  0  0
    0.1647   -1.0653   27.4843 H   0  0  0  0  0  0  0  0  0  0  0  0
    0.4646    1.3713   30.8471 H   0  0  0  0  0  0  0  0  0  0  0  0
   -2.6335   -0.8998   33.2428 H   0  0  0  0  0  0  0  0  0  0  0  0
    1.1939   -2.7417   32.7921 H   0  0  0  0  0  0  0  0  0  0  0  0
    1.0589   -3.6762   35.0890 H   0  0  0  0  0  0  0  0  0  0  0  0
   -0.7022   -7.3376   33.5681 H   0  0  0  0  0  0  0  0  0  0  0  0
  1  2  2  0
  2  3  1  0
  3  4  1  0
  4  5  1  0
  5  6  1  0
  6  7  1  0
  7  8  1  0
  8  9  2  0
  8 10  2  0
  8 11  1  0
 11 12  2  0
 12 13  1  0
 13 14  1  0
 14 15  2  0
  4 16  1  0
 16 17  2  0
 17 18  1  0
 18 19  2  0
 19 20  1  0
 20 21  2  0
 20 22  2  0
 20 23  1  0
 19 24  1  0
 24 25  2  0
 25  2  1  0
 15 11  1  0
 25 16  1  0
  3 26  1  0
  4 27  1  0
  5 28  1  0
  5 29  1  0
  6 30  1  0
  6 31  1  0
  7 32  1  0
 12 33  1  0
 14 34  1  0
 17 35  1  0
 18 36  1  0
 24 37  1  0
M  END
>  <Energy>  (675) 
48.020866623116895

>  <compound_id>  (675) 
2773

>  <target_id>  (675) 
1

>  <reference_id>  (675) 
142

>  <inspiration_ids>  (675) 
[183, 142]

>  <energy_score>  (675) 
-90.98842897128819

>  <distance_score>  (675) 
1.6477041167121758

>  <path>  (675) 
/opt/xchem-fragalysis-2/maxwin/BulkDock/SCRATCH/505736/C2773-P142/C2773-P142.minimised.mol

>  <scratch_subdir>  (675) 
/opt/xchem-fragalysis-2/maxwin/BulkDock/SCRATCH/505736/C2773-P142

>  <fragmenstein_runtime>  (675) 
5.260195255279541

>  <fragmenstein_outcome>  (675) 
too moved

>  <fragmenstein_mode>  (675) 
expansion

>  <fragmenstein_error>  (675) 


$$$$
C2777-P183
     RDKit          3D

 49 53  0  0  0  0  0  0  0  0999 V2000
    2.5231   -7.9048   36.1468 C   0  0  0  0  0  0  0  0  0  0  0  0
    2.2838   -6.5412   35.7760 N   0  0  0  0  0  0  0  0  0  0  0  0
    3.2512   -5.8129   35.1736 N   0  0  0  0  0  0  0  0  0  0  0  0
    2.6656   -4.6013   35.1136 C   0  0  0  0  0  0  0  0  0  0  0  0
    3.0058   -3.5424   34.1619 C   0  0  0  0  0  0  0  0  0  0  0  0
    3.6591   -3.8512   32.9663 C   0  0  0  0  0  0  0  0  0  0  0  0
    3.6719   -2.9260   31.9301 C   0  0  0  0  0  0  0  0  0  0  0  0
    3.0416   -1.6895   32.0848 C   0  0  0  0  0  0  0  0  0  0  0  0
    2.4125   -1.3371   33.2848 C   0  0  0  0  0  0  0  0  0  0  0  0
    1.6212   -0.0377   33.3768 C   0  0  0  0  0  0  0  0  0  0  0  0
    1.7449    0.5877   34.6981 N   0  0  0  0  0  0  0  0  0  0  0  0
    0.1621   -0.2517   32.9833 C   0  0  0  0  0  0  0  0  0  0  0  0
   -0.7870   -0.7375   33.8998 C   0  0  0  0  0  0  0  0  0  0  0  0
   -2.0938   -1.0242   33.4967 C   0  0  0  0  0  0  0  0  0  0  0  0
   -2.4735   -0.8275   32.1712 C   0  0  0  0  0  0  0  0  0  0  0  0
   -1.5503   -0.3366   31.2505 C   0  0  0  0  0  0  0  0  0  0  0  0
   -0.2433   -0.0487   31.6528 C   0  0  0  0  0  0  0  0  0  0  0  0
    2.4256   -2.2730   34.3252 C   0  0  0  0  0  0  0  0  0  0  0  0
    1.4357   -4.5561   35.7397 N   0  0  0  0  0  0  0  0  0  0  0  0
    1.1327   -5.8240   35.8732 C   0  0  0  0  0  0  0  0  0  0  0  0
   -0.4470   -6.5017   35.5315 S   0  0  0  0  0  0  0  0  0  0  0  0
   -0.5254   -5.9337   33.8610 C   0  0  0  0  0  0  0  0  0  0  0  0
   -0.3925   -4.6286   33.5540 C   0  0  0  0  0  0  0  0  0  0  0  0
   -0.1984   -4.2153   32.1766 C   0  0  0  0  0  0  0  0  0  0  0  0
   -0.1895   -5.0939   31.1641 C   0  0  0  0  0  0  0  0  0  0  0  0
   -0.5081   -6.4405   31.4392 C   0  0  0  0  0  0  0  0  0  0  0  0
   -0.7506   -7.4687   30.6583 N   0  0  0  0  0  0  0  0  0  0  0  0
   -1.2037   -8.4935   31.4447 N   0  0  0  0  0  0  0  0  0  0  0  0
   -1.1736   -8.0738   32.6873 C   0  0  0  0  0  0  0  0  0  0  0  0
   -0.6942   -6.8021   32.7678 N   0  0  0  0  0  0  0  0  0  0  0  0
    1.8586   -8.1737   36.9712 H   0  0  0  0  0  0  0  0  0  0  0  0
    3.5613   -8.0107   36.4718 H   0  0  0  0  0  0  0  0  0  0  0  0
    2.3360   -8.5309   35.2748 H   0  0  0  0  0  0  0  0  0  0  0  0
    4.1016   -4.8321   32.8192 H   0  0  0  0  0  0  0  0  0  0  0  0
    4.1545   -3.1721   30.9877 H   0  0  0  0  0  0  0  0  0  0  0  0
    3.0356   -0.9991   31.2427 H   0  0  0  0  0  0  0  0  0  0  0  0
    2.0630    0.6796   32.6716 H   0  0  0  0  0  0  0  0  0  0  0  0
    1.2779    1.4922   34.6652 H   0  0  0  0  0  0  0  0  0  0  0  0
    2.7303    0.7818   34.8672 H   0  0  0  0  0  0  0  0  0  0  0  0
   -0.4996   -0.9218   34.9339 H   0  0  0  0  0  0  0  0  0  0  0  0
   -2.8040   -1.4257   34.2160 H   0  0  0  0  0  0  0  0  0  0  0  0
   -3.4834   -1.0677   31.8505 H   0  0  0  0  0  0  0  0  0  0  0  0
   -1.8427   -0.1874   30.2125 H   0  0  0  0  0  0  0  0  0  0  0  0
    0.4636    0.3157   30.9098 H   0  0  0  0  0  0  0  0  0  0  0  0
    1.8823   -2.0507   35.2442 H   0  0  0  0  0  0  0  0  0  0  0  0
   -0.3316   -3.8456   34.3045 H   0  0  0  0  0  0  0  0  0  0  0  0
    0.0031   -3.1633   31.9942 H   0  0  0  0  0  0  0  0  0  0  0  0
   -0.0208   -4.7810   30.1391 H   0  0  0  0  0  0  0  0  0  0  0  0
   -1.5274   -8.6032   33.5507 H   0  0  0  0  0  0  0  0  0  0  0  0
  1  2  1  0
  2  3  1  0
  3  4  2  0
  4  5  1  0
  5  6  2  0
  6  7  1  0
  7  8  2  0
  8  9  1  0
  9 10  1  0
 10 11  1  0
 10 12  1  0
 12 13  2  0
 13 14  1  0
 14 15  2  0
 15 16  1  0
 16 17  2  0
  9 18  2  0
  4 19  1  0
 19 20  2  0
 20 21  1  0
 21 22  1  0
 22 23  2  0
 23 24  1  0
 24 25  2  0
 25 26  1  0
 26 27  2  0
 27 28  1  0
 28 29  2  0
 29 30  1  0
 20  2  1  0
 30 22  1  0
 18  5  1  0
 30 26  1  0
 17 12  1  0
  1 31  1  0
  1 32  1  0
  1 33  1  0
  6 34  1  0
  7 35  1  0
  8 36  1  0
 10 37  1  0
 11 38  1  0
 11 39  1  0
 13 40  1  0
 14 41  1  0
 15 42  1  0
 16 43  1  0
 17 44  1  0
 18 45  1  0
 23 46  1  0
 24 47  1  0
 25 48  1  0
 29 49  1  0
M  END
>  <Energy>  (676) 
98.226586258870896

>  <compound_id>  (676) 
2777

>  <target_id>  (676) 
1

>  <reference_id>  (676) 
183

>  <inspiration_ids>  (676) 
[183, 156]

>  <energy_score>  (676) 
-33.43838150722607

>  <distance_score>  (676) 
2.302585938867068

>  <path>  (676) 
/opt/xchem-fragalysis-2/maxwin/BulkDock/SCRATCH/505736/C2777-P183/C2777-P183.minimised.mol

>  <scratch_subdir>  (676) 
/opt/xchem-fragalysis-2/maxwin/BulkDock/SCRATCH/505736/C2777-P183

>  <fragmenstein_runtime>  (676) 
17.242969274520874

>  <fragmenstein_outcome>  (676) 
too moved

>  <fragmenstein_mode>  (676) 
expansion

>  <fragmenstein_error>  (676) 


$$$$
C2777-P156
     RDKit          3D

 49 53  0  0  0  0  0  0  0  0999 V2000
    2.7055   -6.9276   37.4267 C   0  0  0  0  0  0  0  0  0  0  0  0
    2.1914   -5.8052   36.6851 N   0  0  0  0  0  0  0  0  0  0  0  0
    3.0128   -4.7832   36.3423 N   0  0  0  0  0  0  0  0  0  0  0  0
    2.1815   -3.9822   35.6512 C   0  0  0  0  0  0  0  0  0  0  0  0
    2.6002   -3.0236   34.6257 C   0  0  0  0  0  0  0  0  0  0  0  0
    3.7528   -3.2504   33.8674 C   0  0  0  0  0  0  0  0  0  0  0  0
    3.9801   -2.5030   32.7201 C   0  0  0  0  0  0  0  0  0  0  0  0
    3.0725   -1.5149   32.3402 C   0  0  0  0  0  0  0  0  0  0  0  0
    1.9211   -1.2454   33.0937 C   0  0  0  0  0  0  0  0  0  0  0  0
    0.9336   -0.1961   32.5793 C   0  0  0  0  0  0  0  0  0  0  0  0
   -0.0541    0.2411   33.5712 N   0  0  0  0  0  0  0  0  0  0  0  0
    0.2224   -0.6179   31.2985 C   0  0  0  0  0  0  0  0  0  0  0  0
   -0.3151   -1.9076   31.1329 C   0  0  0  0  0  0  0  0  0  0  0  0
   -0.9439   -2.2682   29.9392 C   0  0  0  0  0  0  0  0  0  0  0  0
   -1.0661   -1.3425   28.9059 C   0  0  0  0  0  0  0  0  0  0  0  0
   -0.5656   -0.0533   29.0638 C   0  0  0  0  0  0  0  0  0  0  0  0
    0.0732    0.3076   30.2513 C   0  0  0  0  0  0  0  0  0  0  0  0
    1.7043   -2.0161   34.2404 C   0  0  0  0  0  0  0  0  0  0  0  0
    0.8781   -4.4397   35.6148 N   0  0  0  0  0  0  0  0  0  0  0  0
    0.9834   -5.6647   36.0706 C   0  0  0  0  0  0  0  0  0  0  0  0
    0.0867   -7.0159   35.4304 S   0  0  0  0  0  0  0  0  0  0  0  0
    0.3561   -6.7027   33.7108 C   0  0  0  0  0  0  0  0  0  0  0  0
    1.4566   -6.0873   33.2307 C   0  0  0  0  0  0  0  0  0  0  0  0
    1.5354   -5.6656   31.8455 C   0  0  0  0  0  0  0  0  0  0  0  0
    0.6198   -6.0442   30.9461 C   0  0  0  0  0  0  0  0  0  0  0  0
   -0.4088   -6.9094   31.3671 C   0  0  0  0  0  0  0  0  0  0  0  0
   -1.3004   -7.5989   30.6987 N   0  0  0  0  0  0  0  0  0  0  0  0
   -2.0459   -8.3001   31.6012 N   0  0  0  0  0  0  0  0  0  0  0  0
   -1.6020   -8.0112   32.8012 C   0  0  0  0  0  0  0  0  0  0  0  0
   -0.5403   -7.1624   32.7293 N   0  0  0  0  0  0  0  0  0  0  0  0
    3.4224   -6.5621   38.1666 H   0  0  0  0  0  0  0  0  0  0  0  0
    1.8817   -7.4303   37.9393 H   0  0  0  0  0  0  0  0  0  0  0  0
    3.1958   -7.6084   36.7264 H   0  0  0  0  0  0  0  0  0  0  0  0
    4.4511   -4.0356   34.1467 H   0  0  0  0  0  0  0  0  0  0  0  0
    4.8674   -2.6821   32.1180 H   0  0  0  0  0  0  0  0  0  0  0  0
    3.2672   -0.9477   31.4296 H   0  0  0  0  0  0  0  0  0  0  0  0
    1.5420    0.6913   32.3560 H   0  0  0  0  0  0  0  0  0  0  0  0
    0.4311    0.4697   34.4354 H   0  0  0  0  0  0  0  0  0  0  0  0
   -0.6818   -0.5347   33.7683 H   0  0  0  0  0  0  0  0  0  0  0  0
   -0.2405   -2.6425   31.9304 H   0  0  0  0  0  0  0  0  0  0  0  0
   -1.3474   -3.2672   29.8045 H   0  0  0  0  0  0  0  0  0  0  0  0
   -1.5635   -1.6224   27.9780 H   0  0  0  0  0  0  0  0  0  0  0  0
   -0.6785    0.6706   28.2598 H   0  0  0  0  0  0  0  0  0  0  0  0
    0.4509    1.3228   30.3554 H   0  0  0  0  0  0  0  0  0  0  0  0
    0.7906   -1.8940   34.8193 H   0  0  0  0  0  0  0  0  0  0  0  0
    2.3088   -5.8092   33.8317 H   0  0  0  0  0  0  0  0  0  0  0  0
    2.3402   -4.9916   31.5626 H   0  0  0  0  0  0  0  0  0  0  0  0
    0.6563   -5.7162   29.9134 H   0  0  0  0  0  0  0  0  0  0  0  0
   -1.9856   -8.4075   33.7277 H   0  0  0  0  0  0  0  0  0  0  0  0
  1  2  1  0
  2  3  1  0
  3  4  2  0
  4  5  1  0
  5  6  2  0
  6  7  1  0
  7  8  2  0
  8  9  1  0
  9 10  1  0
 10 11  1  0
 10 12  1  0
 12 13  2  0
 13 14  1  0
 14 15  2  0
 15 16  1  0
 16 17  2  0
  9 18  2  0
  4 19  1  0
 19 20  2  0
 20 21  1  0
 21 22  1  0
 22 23  2  0
 23 24  1  0
 24 25  2  0
 25 26  1  0
 26 27  2  0
 27 28  1  0
 28 29  2  0
 29 30  1  0
 20  2  1  0
 30 22  1  0
 18  5  1  0
 30 26  1  0
 17 12  1  0
  1 31  1  0
  1 32  1  0
  1 33  1  0
  6 34  1  0
  7 35  1  0
  8 36  1  0
 10 37  1  0
 11 38  1  0
 11 39  1  0
 13 40  1  0
 14 41  1  0
 15 42  1  0
 16 43  1  0
 17 44  1  0
 18 45  1  0
 23 46  1  0
 24 47  1  0
 25 48  1  0
 29 49  1  0
M  END
>  <Energy>  (677) 
100.76055107233336

>  <compound_id>  (677) 
2777

>  <target_id>  (677) 
1

>  <reference_id>  (677) 
156

>  <inspiration_ids>  (677) 
[183, 156]

>  <energy_score>  (677) 
-30.904416693764688

>  <distance_score>  (677) 
2.462618563688309

>  <path>  (677) 
/opt/xchem-fragalysis-2/maxwin/BulkDock/SCRATCH/505736/C2777-P156/C2777-P156.minimised.mol

>  <scratch_subdir>  (677) 
/opt/xchem-fragalysis-2/maxwin/BulkDock/SCRATCH/505736/C2777-P156

>  <fragmenstein_runtime>  (677) 
17.710525512695312

>  <fragmenstein_outcome>  (677) 
too moved

>  <fragmenstein_mode>  (677) 
expansion

>  <fragmenstein_error>  (677) 


$$$$
C2778-P183
     RDKit          3D

 49 53  0  0  0  0  0  0  0  0999 V2000
    2.1811   -5.8130   29.0743 C   0  0  0  0  0  0  0  0  0  0  0  0
    1.0594   -5.8926   30.0603 C   0  0  0  0  0  0  0  0  0  0  0  0
    0.8620   -6.9240   30.8474 N   0  0  0  0  0  0  0  0  0  0  0  0
    0.3298   -6.3111   32.1029 C   0  0  0  0  0  0  0  0  0  0  0  0
   -0.5518   -7.1544   33.0075 C   0  0  0  0  0  0  0  0  0  0  0  0
   -0.5115   -6.6233   34.4697 C   0  0  0  0  0  0  0  0  0  0  0  0
    0.0110   -5.1724   34.6296 C   0  0  0  0  0  0  0  0  0  0  0  0
    1.3939   -4.9666   33.9892 C   0  0  0  0  0  0  0  0  0  0  0  0
    1.7132   -3.5833   33.4952 C   0  0  0  0  0  0  0  0  0  0  0  0
    2.2938   -3.3455   32.2573 N   0  0  0  0  0  0  0  0  0  0  0  0
    2.6004   -2.0721   32.3035 C   0  0  0  0  0  0  0  0  0  0  0  0
    3.4068   -1.1067   31.1179 S   0  0  0  0  0  0  0  0  0  0  0  0
    4.1072   -2.3038   30.0776 C   0  0  0  0  0  0  0  0  0  0  0  0
    3.8643   -2.2402   28.7493 C   0  0  0  0  0  0  0  0  0  0  0  0
    4.5450   -3.1485   27.8381 C   0  0  0  0  0  0  0  0  0  0  0  0
    5.4191   -4.0670   28.2877 C   0  0  0  0  0  0  0  0  0  0  0  0
    5.6735   -4.1632   29.6817 C   0  0  0  0  0  0  0  0  0  0  0  0
    6.4405   -4.9692   30.3824 N   0  0  0  0  0  0  0  0  0  0  0  0
    6.3423   -4.6009   31.7021 N   0  0  0  0  0  0  0  0  0  0  0  0
    5.5170   -3.5807   31.7731 C   0  0  0  0  0  0  0  0  0  0  0  0
    5.0240   -3.2700   30.5312 N   0  0  0  0  0  0  0  0  0  0  0  0
    2.2153   -1.5644   33.5109 N   0  0  0  0  0  0  0  0  0  0  0  0
    2.4370   -0.2447   34.0264 C   0  0  0  0  0  0  0  0  0  0  0  0
    1.6608   -2.5120   34.2889 N   0  0  0  0  0  0  0  0  0  0  0  0
    1.6106   -5.9782   32.8847 C   0  0  0  0  0  0  0  0  0  0  0  0
   -0.4802   -5.1705   31.5209 C   0  0  0  0  0  0  0  0  0  0  0  0
   -1.5542   -4.7686   31.9355 O   0  0  0  0  0  0  0  0  0  0  0  0
    0.1705   -4.7133   30.2716 C   0  0  0  0  0  0  0  0  0  0  0  0
    3.0694   -5.4825   29.6135 H   0  0  0  0  0  0  0  0  0  0  0  0
    2.3947   -6.7839   28.6282 H   0  0  0  0  0  0  0  0  0  0  0  0
    1.9676   -5.0716   28.3016 H   0  0  0  0  0  0  0  0  0  0  0  0
   -1.5869   -7.1745   32.6518 H   0  0  0  0  0  0  0  0  0  0  0  0
   -0.2342   -8.1963   32.9927 H   0  0  0  0  0  0  0  0  0  0  0  0
   -1.5096   -6.7078   34.9136 H   0  0  0  0  0  0  0  0  0  0  0  0
    0.1359   -7.2871   35.0580 H   0  0  0  0  0  0  0  0  0  0  0  0
    0.0693   -4.9321   35.6989 H   0  0  0  0  0  0  0  0  0  0  0  0
   -0.7210   -4.4695   34.2195 H   0  0  0  0  0  0  0  0  0  0  0  0
    2.1458   -5.1810   34.7633 H   0  0  0  0  0  0  0  0  0  0  0  0
    3.2028   -1.4978   28.3087 H   0  0  0  0  0  0  0  0  0  0  0  0
    4.3537   -3.0393   26.7739 H   0  0  0  0  0  0  0  0  0  0  0  0
    5.9513   -4.7286   27.6116 H   0  0  0  0  0  0  0  0  0  0  0  0
    5.2463   -3.0585   32.6778 H   0  0  0  0  0  0  0  0  0  0  0  0
    1.9953   -0.1620   35.0235 H   0  0  0  0  0  0  0  0  0  0  0  0
    1.9604    0.4811   33.3628 H   0  0  0  0  0  0  0  0  0  0  0  0
    3.5131   -0.0648   34.0913 H   0  0  0  0  0  0  0  0  0  0  0  0
    2.4390   -5.6795   32.2331 H   0  0  0  0  0  0  0  0  0  0  0  0
    1.9799   -6.9042   33.3470 H   0  0  0  0  0  0  0  0  0  0  0  0
    0.7357   -3.7953   30.4078 H   0  0  0  0  0  0  0  0  0  0  0  0
   -0.5364   -4.6250   29.4476 H   0  0  0  0  0  0  0  0  0  0  0  0
  1  2  1  0
  2  3  2  0
  3  4  1  0
  4  5  1  0
  5  6  1  0
  6  7  1  0
  7  8  1  0
  8  9  1  0
  9 10  1  0
 10 11  2  0
 11 12  1  0
 12 13  1  0
 13 14  2  0
 14 15  1  0
 15 16  2  0
 16 17  1  0
 17 18  2  0
 18 19  1  0
 19 20  2  0
 20 21  1  0
 11 22  1  0
 22 23  1  0
 22 24  1  0
  8 25  1  0
  4 26  1  0
 26 27  2  0
 26 28  1  0
 28  2  1  0
 25  4  1  0
 24  9  2  0
 21 13  1  0
 21 17  1  0
  1 29  1  0
  1 30  1  0
  1 31  1  0
  5 32  1  0
  5 33  1  0
  6 34  1  0
  6 35  1  0
  7 36  1  0
  7 37  1  0
  8 38  1  0
 14 39  1  0
 15 40  1  0
 16 41  1  0
 20 42  1  0
 23 43  1  0
 23 44  1  0
 23 45  1  0
 25 46  1  0
 25 47  1  0
 28 48  1  0
 28 49  1  0
M  END
>  <Energy>  (678) 
98.19250977003847

>  <compound_id>  (678) 
2778

>  <target_id>  (678) 
1

>  <reference_id>  (678) 
183

>  <inspiration_ids>  (678) 
[183, 157]

>  <energy_score>  (678) 
-39.213807343403516

>  <distance_score>  (678) 
1.611017722970952

>  <path>  (678) 
/opt/xchem-fragalysis-2/maxwin/BulkDock/SCRATCH/505736/C2778-P183/C2778-P183.minimised.mol

>  <scratch_subdir>  (678) 
/opt/xchem-fragalysis-2/maxwin/BulkDock/SCRATCH/505736/C2778-P183

>  <fragmenstein_runtime>  (678) 
2.261565923690796

>  <fragmenstein_outcome>  (678) 
too moved

>  <fragmenstein_mode>  (678) 
expansion

>  <fragmenstein_error>  (678) 


$$$$
C2778-P157
     RDKit          3D

 49 53  0  0  0  0  0  0  0  0999 V2000
    2.2022   -5.7573   29.1484 C   0  0  0  0  0  0  0  0  0  0  0  0
    1.0562   -5.8722   30.1020 C   0  0  0  0  0  0  0  0  0  0  0  0
    0.8761   -6.9044   30.8924 N   0  0  0  0  0  0  0  0  0  0  0  0
    0.3207   -6.2947   32.1394 C   0  0  0  0  0  0  0  0  0  0  0  0
   -0.5440   -7.1464   33.0545 C   0  0  0  0  0  0  0  0  0  0  0  0
   -0.5349   -6.5770   34.5042 C   0  0  0  0  0  0  0  0  0  0  0  0
   -0.0308   -5.1162   34.6412 C   0  0  0  0  0  0  0  0  0  0  0  0
    1.3551   -4.9041   34.0104 C   0  0  0  0  0  0  0  0  0  0  0  0
    1.6706   -3.5261   33.5025 C   0  0  0  0  0  0  0  0  0  0  0  0
    2.2395   -3.2967   32.2570 N   0  0  0  0  0  0  0  0  0  0  0  0
    2.5618   -2.0268   32.2990 C   0  0  0  0  0  0  0  0  0  0  0  0
    3.3646   -1.0692   31.1049 S   0  0  0  0  0  0  0  0  0  0  0  0
    4.0766   -2.2699   30.0773 C   0  0  0  0  0  0  0  0  0  0  0  0
    3.8472   -2.2098   28.7464 C   0  0  0  0  0  0  0  0  0  0  0  0
    4.5361   -3.1209   27.8442 C   0  0  0  0  0  0  0  0  0  0  0  0
    5.4052   -4.0385   28.3051 C   0  0  0  0  0  0  0  0  0  0  0  0
    5.6461   -4.1307   29.7017 C   0  0  0  0  0  0  0  0  0  0  0  0
    6.4045   -4.9366   30.4117 N   0  0  0  0  0  0  0  0  0  0  0  0
    6.2949   -4.5640   31.7293 N   0  0  0  0  0  0  0  0  0  0  0  0
    5.4707   -3.5421   31.7898 C   0  0  0  0  0  0  0  0  0  0  0  0
    4.9892   -3.2347   30.5426 N   0  0  0  0  0  0  0  0  0  0  0  0
    2.1979   -1.5141   33.5109 N   0  0  0  0  0  0  0  0  0  0  0  0
    2.4477   -0.1993   34.0257 C   0  0  0  0  0  0  0  0  0  0  0  0
    1.6413   -2.4540   34.2959 N   0  0  0  0  0  0  0  0  0  0  0  0
    1.5926   -5.9268   32.9227 C   0  0  0  0  0  0  0  0  0  0  0  0
   -0.5157   -5.1810   31.5416 C   0  0  0  0  0  0  0  0  0  0  0  0
   -1.5999   -4.8013   31.9498 O   0  0  0  0  0  0  0  0  0  0  0  0
    0.1292   -4.7194   30.2906 C   0  0  0  0  0  0  0  0  0  0  0  0
    3.0730   -5.4398   29.7241 H   0  0  0  0  0  0  0  0  0  0  0  0
    2.4409   -6.7110   28.6793 H   0  0  0  0  0  0  0  0  0  0  0  0
    2.0011   -4.9959   28.3920 H   0  0  0  0  0  0  0  0  0  0  0  0
   -1.5765   -7.2081   32.6917 H   0  0  0  0  0  0  0  0  0  0  0  0
   -0.1902   -8.1779   33.0740 H   0  0  0  0  0  0  0  0  0  0  0  0
   -1.5404   -6.6609   34.9318 H   0  0  0  0  0  0  0  0  0  0  0  0
    0.1081   -7.2198   35.1200 H   0  0  0  0  0  0  0  0  0  0  0  0
    0.0143   -4.8557   35.7065 H   0  0  0  0  0  0  0  0  0  0  0  0
   -0.7674   -4.4291   34.2129 H   0  0  0  0  0  0  0  0  0  0  0  0
    2.1007   -5.1027   34.7950 H   0  0  0  0  0  0  0  0  0  0  0  0
    3.1899   -1.4684   28.2977 H   0  0  0  0  0  0  0  0  0  0  0  0
    4.3542   -3.0155   26.7781 H   0  0  0  0  0  0  0  0  0  0  0  0
    5.9430   -4.7029   27.6364 H   0  0  0  0  0  0  0  0  0  0  0  0
    5.1933   -3.0169   32.6906 H   0  0  0  0  0  0  0  0  0  0  0  0
    3.5273   -0.0368   34.0770 H   0  0  0  0  0  0  0  0  0  0  0  0
    2.0204   -0.1112   35.0286 H   0  0  0  0  0  0  0  0  0  0  0  0
    1.9743    0.5354   33.3697 H   0  0  0  0  0  0  0  0  0  0  0  0
    2.4249   -5.6327   32.2725 H   0  0  0  0  0  0  0  0  0  0  0  0
    1.9719   -6.8350   33.4081 H   0  0  0  0  0  0  0  0  0  0  0  0
    0.6635   -3.7820   30.4212 H   0  0  0  0  0  0  0  0  0  0  0  0
   -0.5693   -4.6656   29.4567 H   0  0  0  0  0  0  0  0  0  0  0  0
  1  2  1  0
  2  3  2  0
  3  4  1  0
  4  5  1  0
  5  6  1  0
  6  7  1  0
  7  8  1  0
  8  9  1  0
  9 10  1  0
 10 11  2  0
 11 12  1  0
 12 13  1  0
 13 14  2  0
 14 15  1  0
 15 16  2  0
 16 17  1  0
 17 18  2  0
 18 19  1  0
 19 20  2  0
 20 21  1  0
 11 22  1  0
 22 23  1  0
 22 24  1  0
  8 25  1  0
  4 26  1  0
 26 27  2  0
 26 28  1  0
 28  2  1  0
 25  4  1  0
 24  9  2  0
 21 13  1  0
 21 17  1  0
  1 29  1  0
  1 30  1  0
  1 31  1  0
  5 32  1  0
  5 33  1  0
  6 34  1  0
  6 35  1  0
  7 36  1  0
  7 37  1  0
  8 38  1  0
 14 39  1  0
 15 40  1  0
 16 41  1  0
 20 42  1  0
 23 43  1  0
 23 44  1  0
 23 45  1  0
 25 46  1  0
 25 47  1  0
 28 48  1  0
 28 49  1  0
M  END
>  <Energy>  (679) 
99.972390179109198

>  <compound_id>  (679) 
2778

>  <target_id>  (679) 
1

>  <reference_id>  (679) 
157

>  <inspiration_ids>  (679) 
[183, 157]

>  <energy_score>  (679) 
-37.43392693433452

>  <distance_score>  (679) 
1.6053681765482761

>  <path>  (679) 
/opt/xchem-fragalysis-2/maxwin/BulkDock/SCRATCH/505736/C2778-P157/C2778-P157.minimised.mol

>  <scratch_subdir>  (679) 
/opt/xchem-fragalysis-2/maxwin/BulkDock/SCRATCH/505736/C2778-P157

>  <fragmenstein_runtime>  (679) 
2.343149423599243

>  <fragmenstein_outcome>  (679) 
too moved

>  <fragmenstein_mode>  (679) 
expansion

>  <fragmenstein_error>  (679) 


$$$$
C2782-P183
     RDKit          3D

 58 62  0  0  0  0  0  0  0  0999 V2000
    5.0353   -2.1585   30.7973 C   0  0  0  0  0  0  0  0  0  0  0  0
    4.4313   -1.3109   29.7006 C   0  0  0  0  0  0  0  0  0  0  0  0
    5.0091   -0.5647   29.0428 O   0  0  0  0  0  0  0  0  0  0  0  0
    2.8624   -1.7337   29.7702 N   0  0  0  0  0  0  0  0  0  0  0  0
    1.2845   -1.3632   28.7405 C   0  0  0  0  0  0  0  0  0  0  0  0
   -0.0079   -1.2349   29.6619 C   0  0  0  0  0  0  0  0  0  0  0  0
   -1.3043   -1.0473   28.8864 C   0  0  0  0  0  0  0  0  0  0  0  0
   -1.1641   -0.2262   27.7418 O   0  0  0  0  0  0  0  0  0  0  0  0
    0.8471   -0.1433   30.0971 C   0  0  0  0  0  0  0  0  0  0  0  0
    0.5395    1.2611   29.4968 C   0  0  0  0  0  0  0  0  0  0  0  0
    1.3765    2.3606   30.1419 C   0  0  0  0  0  0  0  0  0  0  0  0
    1.1294    2.4669   31.6415 C   0  0  0  0  0  0  0  0  0  0  0  0
    0.6427    1.1633   32.2697 C   0  0  0  0  0  0  0  0  0  0  0  0
    1.2662   -0.0819   31.6026 C   0  0  0  0  0  0  0  0  0  0  0  0
    1.0101   -1.3095   32.4348 C   0  0  0  0  0  0  0  0  0  0  0  0
    1.9193   -2.3300   32.5284 N   0  0  0  0  0  0  0  0  0  0  0  0
    1.4164   -3.1152   33.4481 C   0  0  0  0  0  0  0  0  0  0  0  0
    2.2178   -4.5348   34.0268 S   0  0  0  0  0  0  0  0  0  0  0  0
    0.9415   -5.6953   33.9034 C   0  0  0  0  0  0  0  0  0  0  0  0
    0.5040   -6.3167   35.0201 C   0  0  0  0  0  0  0  0  0  0  0  0
   -0.5578   -7.3019   34.9284 C   0  0  0  0  0  0  0  0  0  0  0  0
   -1.1109   -7.6174   33.7448 C   0  0  0  0  0  0  0  0  0  0  0  0
   -0.6431   -7.0047   32.5583 C   0  0  0  0  0  0  0  0  0  0  0  0
   -0.9746   -7.1613   31.2967 N   0  0  0  0  0  0  0  0  0  0  0  0
   -0.1768   -6.3270   30.5533 N   0  0  0  0  0  0  0  0  0  0  0  0
    0.6132   -5.6763   31.3789 C   0  0  0  0  0  0  0  0  0  0  0  0
    0.3712   -6.0622   32.6721 N   0  0  0  0  0  0  0  0  0  0  0  0
    0.2519   -2.5745   33.9157 N   0  0  0  0  0  0  0  0  0  0  0  0
   -0.5746   -2.9747   35.0237 C   0  0  0  0  0  0  0  0  0  0  0  0
   -0.0664   -1.4609   33.2209 N   0  0  0  0  0  0  0  0  0  0  0  0
    1.9158   -1.0844   29.0607 C   0  0  0  0  0  0  0  0  0  0  0  0
    4.6667   -3.1867   30.7408 H   0  0  0  0  0  0  0  0  0  0  0  0
    6.1225   -2.1788   30.6788 H   0  0  0  0  0  0  0  0  0  0  0  0
    4.7886   -1.7254   31.7701 H   0  0  0  0  0  0  0  0  0  0  0  0
    1.0625   -2.5340   28.4123 H   0  0  0  0  0  0  0  0  0  0  0  0
    1.1020   -1.0221   27.5272 H   0  0  0  0  0  0  0  0  0  0  0  0
   -0.0897   -2.0917   30.3381 H   0  0  0  0  0  0  0  0  0  0  0  0
   -1.6785   -2.0235   28.5620 H   0  0  0  0  0  0  0  0  0  0  0  0
   -2.0636   -0.6011   29.5360 H   0  0  0  0  0  0  0  0  0  0  0  0
   -1.3533   -0.7730   26.9458 H   0  0  0  0  0  0  0  0  0  0  0  0
   -0.5192    1.5024   29.6436 H   0  0  0  0  0  0  0  0  0  0  0  0
    0.7308    1.2845   28.4177 H   0  0  0  0  0  0  0  0  0  0  0  0
    1.1616    3.3247   29.6665 H   0  0  0  0  0  0  0  0  0  0  0  0
    2.4401    2.1613   29.9628 H   0  0  0  0  0  0  0  0  0  0  0  0
    2.0572    2.7904   32.1291 H   0  0  0  0  0  0  0  0  0  0  0  0
    0.3921    3.2526   31.8439 H   0  0  0  0  0  0  0  0  0  0  0  0
    0.8711    1.1905   33.3431 H   0  0  0  0  0  0  0  0  0  0  0  0
   -0.4514    1.1103   32.1926 H   0  0  0  0  0  0  0  0  0  0  0  0
    2.3531    0.0813   31.6408 H   0  0  0  0  0  0  0  0  0  0  0  0
    0.9121   -6.1157   36.0074 H   0  0  0  0  0  0  0  0  0  0  0  0
   -0.8764   -7.8112   35.8362 H   0  0  0  0  0  0  0  0  0  0  0  0
   -1.8862   -8.3684   33.6637 H   0  0  0  0  0  0  0  0  0  0  0  0
    1.3553   -4.9414   31.0963 H   0  0  0  0  0  0  0  0  0  0  0  0
   -1.1565   -3.8432   34.7190 H   0  0  0  0  0  0  0  0  0  0  0  0
    0.0623   -3.2111   35.8792 H   0  0  0  0  0  0  0  0  0  0  0  0
   -1.2469   -2.1553   35.2922 H   0  0  0  0  0  0  0  0  0  0  0  0
    2.6620   -0.6164   28.0469 H   0  0  0  0  0  0  0  0  0  0  0  0
    2.5344   -0.0726   29.3292 H   0  0  0  0  0  0  0  0  0  0  0  0
  1  2  1  0
  2  3  2  0
  2  4  1  0
  4  5  1  0
  5  6  1  0
  6  7  1  0
  7  8  1  0
  6  9  1  0
  9 10  1  0
 10 11  1  0
 11 12  1  0
 12 13  1  0
 13 14  1  0
 14 15  1  0
 15 16  1  0
 16 17  2  0
 17 18  1  0
 18 19  1  0
 19 20  2  0
 20 21  1  0
 21 22  2  0
 22 23  1  0
 23 24  2  0
 24 25  1  0
 25 26  2  0
 26 27  1  0
 17 28  1  0
 28 29  1  0
 28 30  1  0
  9 31  1  0
 31  4  1  0
 14  9  1  0
 30 15  2  0
 27 19  1  0
 27 23  1  0
  1 32  1  0
  1 33  1  0
  1 34  1  0
  5 35  1  0
  5 36  1  0
  6 37  1  0
  7 38  1  0
  7 39  1  0
  8 40  1  0
 10 41  1  0
 10 42  1  0
 11 43  1  0
 11 44  1  0
 12 45  1  0
 12 46  1  0
 13 47  1  0
 13 48  1  0
 14 49  1  0
 20 50  1  0
 21 51  1  0
 22 52  1  0
 26 53  1  0
 29 54  1  0
 29 55  1  0
 29 56  1  0
 31 57  1  0
 31 58  1  0
M  END
>  <Energy>  (680) 
790.10083639288814

>  <compound_id>  (680) 
2782

>  <target_id>  (680) 
1

>  <reference_id>  (680) 
183

>  <inspiration_ids>  (680) 
[183, 163]

>  <energy_score>  (680) 
670.5508098483597

>  <distance_score>  (680) 
2.9037162775661454

>  <path>  (680) 
/opt/xchem-fragalysis-2/maxwin/BulkDock/SCRATCH/505736/C2782-P183/C2782-P183.minimised.mol

>  <scratch_subdir>  (680) 
/opt/xchem-fragalysis-2/maxwin/BulkDock/SCRATCH/505736/C2782-P183

>  <fragmenstein_runtime>  (680) 
11.485359191894531

>  <fragmenstein_outcome>  (680) 
too moved

>  <fragmenstein_mode>  (680) 
expansion

>  <fragmenstein_error>  (680) 


$$$$
C2782-P163
     RDKit          3D

 58 62  0  0  0  0  0  0  0  0999 V2000
    4.9767   -2.5726   30.9192 C   0  0  0  0  0  0  0  0  0  0  0  0
    4.0515   -1.4398   30.5373 C   0  0  0  0  0  0  0  0  0  0  0  0
    4.2300   -0.3283   30.7351 O   0  0  0  0  0  0  0  0  0  0  0  0
    2.8134   -2.2808   29.7930 N   0  0  0  0  0  0  0  0  0  0  0  0
    1.1069   -1.8984   29.0772 C   0  0  0  0  0  0  0  0  0  0  0  0
   -0.0907   -1.1742   29.8239 C   0  0  0  0  0  0  0  0  0  0  0  0
   -1.2150   -0.8595   28.8402 C   0  0  0  0  0  0  0  0  0  0  0  0
   -0.7240   -0.3549   27.6117 O   0  0  0  0  0  0  0  0  0  0  0  0
    1.0238   -0.2924   30.0929 C   0  0  0  0  0  0  0  0  0  0  0  0
    0.9827    1.0767   29.3492 C   0  0  0  0  0  0  0  0  0  0  0  0
    1.7540    2.1640   30.0881 C   0  0  0  0  0  0  0  0  0  0  0  0
    1.1756    2.4087   31.4800 C   0  0  0  0  0  0  0  0  0  0  0  0
    0.5876    1.1492   32.1233 C   0  0  0  0  0  0  0  0  0  0  0  0
    1.3011   -0.1280   31.6266 C   0  0  0  0  0  0  0  0  0  0  0  0
    1.0293   -1.3089   32.5201 C   0  0  0  0  0  0  0  0  0  0  0  0
    1.8821   -2.3779   32.5868 N   0  0  0  0  0  0  0  0  0  0  0  0
    1.3964   -3.1061   33.5594 C   0  0  0  0  0  0  0  0  0  0  0  0
    2.1571   -4.5428   34.1451 S   0  0  0  0  0  0  0  0  0  0  0  0
    0.8638   -5.6704   33.9345 C   0  0  0  0  0  0  0  0  0  0  0  0
    0.3384   -6.2814   35.0179 C   0  0  0  0  0  0  0  0  0  0  0  0
   -0.7281   -7.2506   34.8515 C   0  0  0  0  0  0  0  0  0  0  0  0
   -1.1954   -7.5679   33.6319 C   0  0  0  0  0  0  0  0  0  0  0  0
   -0.6332   -6.9661   32.4812 C   0  0  0  0  0  0  0  0  0  0  0  0
   -0.8655   -7.1334   31.1993 N   0  0  0  0  0  0  0  0  0  0  0  0
   -0.0077   -6.3089   30.5128 N   0  0  0  0  0  0  0  0  0  0  0  0
    0.7194   -5.6552   31.3926 C   0  0  0  0  0  0  0  0  0  0  0  0
    0.3779   -6.0314   32.6660 N   0  0  0  0  0  0  0  0  0  0  0  0
    0.2837   -2.5000   34.0681 N   0  0  0  0  0  0  0  0  0  0  0  0
   -0.5220   -2.8505   35.2079 C   0  0  0  0  0  0  0  0  0  0  0  0
   -0.0093   -1.3837   33.3666 N   0  0  0  0  0  0  0  0  0  0  0  0
    1.7820   -1.5963   29.1370 C   0  0  0  0  0  0  0  0  0  0  0  0
    5.7626   -2.1892   31.5762 H   0  0  0  0  0  0  0  0  0  0  0  0
    5.4365   -2.9897   30.0194 H   0  0  0  0  0  0  0  0  0  0  0  0
    4.4294   -3.3519   31.4561 H   0  0  0  0  0  0  0  0  0  0  0  0
    0.6967   -2.9994   29.4961 H   0  0  0  0  0  0  0  0  0  0  0  0
    0.7587   -2.4296   27.9796 H   0  0  0  0  0  0  0  0  0  0  0  0
   -0.4820   -1.7633   30.6570 H   0  0  0  0  0  0  0  0  0  0  0  0
   -1.7790   -1.7750   28.6313 H   0  0  0  0  0  0  0  0  0  0  0  0
   -1.8983   -0.1234   29.2717 H   0  0  0  0  0  0  0  0  0  0  0  0
   -1.2054   -0.7977   26.8782 H   0  0  0  0  0  0  0  0  0  0  0  0
   -0.0495    1.4358   29.2600 H   0  0  0  0  0  0  0  0  0  0  0  0
    1.3857    0.9901   28.3337 H   0  0  0  0  0  0  0  0  0  0  0  0
    1.7322    3.0982   29.5152 H   0  0  0  0  0  0  0  0  0  0  0  0
    2.8085    1.8768   30.1678 H   0  0  0  0  0  0  0  0  0  0  0  0
    1.9668    2.8171   32.1205 H   0  0  0  0  0  0  0  0  0  0  0  0
    0.3963    3.1782   31.4316 H   0  0  0  0  0  0  0  0  0  0  0  0
   -0.4847    1.0853   31.8953 H   0  0  0  0  0  0  0  0  0  0  0  0
    0.6633    1.2525   33.2132 H   0  0  0  0  0  0  0  0  0  0  0  0
    2.3565    0.0879   31.7827 H   0  0  0  0  0  0  0  0  0  0  0  0
    0.6810   -6.0842   36.0308 H   0  0  0  0  0  0  0  0  0  0  0  0
   -1.1232   -7.7347   35.7397 H   0  0  0  0  0  0  0  0  0  0  0  0
   -1.9765   -8.3042   33.4925 H   0  0  0  0  0  0  0  0  0  0  0  0
    1.4858   -4.9260   31.1641 H   0  0  0  0  0  0  0  0  0  0  0  0
   -1.2144   -3.6375   34.9087 H   0  0  0  0  0  0  0  0  0  0  0  0
    0.1259   -3.1882   36.0197 H   0  0  0  0  0  0  0  0  0  0  0  0
   -1.0815   -1.9716   35.5401 H   0  0  0  0  0  0  0  0  0  0  0  0
    2.5792   -0.6976   29.0554 H   0  0  0  0  0  0  0  0  0  0  0  0
    2.2187   -1.3824   27.8879 H   0  0  0  0  0  0  0  0  0  0  0  0
  1  2  1  0
  2  3  2  0
  2  4  1  0
  4  5  1  0
  5  6  1  0
  6  7  1  0
  7  8  1  0
  6  9  1  0
  9 10  1  0
 10 11  1  0
 11 12  1  0
 12 13  1  0
 13 14  1  0
 14 15  1  0
 15 16  1  0
 16 17  2  0
 17 18  1  0
 18 19  1  0
 19 20  2  0
 20 21  1  0
 21 22  2  0
 22 23  1  0
 23 24  2  0
 24 25  1  0
 25 26  2  0
 26 27  1  0
 17 28  1  0
 28 29  1  0
 28 30  1  0
  9 31  1  0
 31  4  1  0
 14  9  1  0
 30 15  2  0
 27 19  1  0
 27 23  1  0
  1 32  1  0
  1 33  1  0
  1 34  1  0
  5 35  1  0
  5 36  1  0
  6 37  1  0
  7 38  1  0
  7 39  1  0
  8 40  1  0
 10 41  1  0
 10 42  1  0
 11 43  1  0
 11 44  1  0
 12 45  1  0
 12 46  1  0
 13 47  1  0
 13 48  1  0
 14 49  1  0
 20 50  1  0
 21 51  1  0
 22 52  1  0
 26 53  1  0
 29 54  1  0
 29 55  1  0
 29 56  1  0
 31 57  1  0
 31 58  1  0
M  END
>  <Energy>  (681) 
774.26841394234839

>  <compound_id>  (681) 
2782

>  <target_id>  (681) 
1

>  <reference_id>  (681) 
163

>  <inspiration_ids>  (681) 
[183, 163]

>  <energy_score>  (681) 
654.7183873978249

>  <distance_score>  (681) 
2.756634088811782

>  <path>  (681) 
/opt/xchem-fragalysis-2/maxwin/BulkDock/SCRATCH/505736/C2782-P163/C2782-P163.minimised.mol

>  <scratch_subdir>  (681) 
/opt/xchem-fragalysis-2/maxwin/BulkDock/SCRATCH/505736/C2782-P163

>  <fragmenstein_runtime>  (681) 
12.148730754852295

>  <fragmenstein_outcome>  (681) 
too moved

>  <fragmenstein_mode>  (681) 
expansion

>  <fragmenstein_error>  (681) 


$$$$
C2786-P183
     RDKit          3D

 60 64  0  0  0  0  0  0  0  0999 V2000
    0.8102   -7.2827   36.4115 C   0  0  0  0  0  0  0  0  0  0  0  0
    1.3095   -7.3808   34.9924 C   0  0  0  0  0  0  0  0  0  0  0  0
    2.3589   -7.9439   34.7012 O   0  0  0  0  0  0  0  0  0  0  0  0
    0.4143   -6.8614   34.0851 N   0  0  0  0  0  0  0  0  0  0  0  0
    0.8906   -5.1189   33.8153 C   0  0  0  0  0  0  0  0  0  0  0  0
    2.3264   -4.8570   32.8975 C   0  0  0  0  0  0  0  0  0  0  0  0
    1.8929   -5.1059   31.5458 N   0  0  0  0  0  0  0  0  0  0  0  0
    2.5779   -4.7165   30.4189 C   0  0  0  0  0  0  0  0  0  0  0  0
    2.1177   -4.7009   29.1655 C   0  0  0  0  0  0  0  0  0  0  0  0
    2.8055   -4.2398   27.9171 C   0  0  0  0  0  0  0  0  0  0  0  0
    4.3058   -4.2428   27.8318 C   0  0  0  0  0  0  0  0  0  0  0  0
    4.9941   -3.0845   27.4445 C   0  0  0  0  0  0  0  0  0  0  0  0
    6.3705   -3.1192   27.2286 C   0  0  0  0  0  0  0  0  0  0  0  0
    7.0727   -4.3114   27.4012 C   0  0  0  0  0  0  0  0  0  0  0  0
    6.4091   -5.4711   27.8124 C   0  0  0  0  0  0  0  0  0  0  0  0
    7.1441   -6.7022   28.0465 C   0  0  0  0  0  0  0  0  0  0  0  0
    8.4301   -6.9013   27.6057 N   0  0  0  0  0  0  0  0  0  0  0  0
    8.7144   -8.1132   28.0114 C   0  0  0  0  0  0  0  0  0  0  0  0
   10.1510   -8.9761   27.5895 S   0  0  0  0  0  0  0  0  0  0  0  0
   10.7938   -9.3733   29.1530 C   0  0  0  0  0  0  0  0  0  0  0  0
   10.7982   -8.5068   30.1894 C   0  0  0  0  0  0  0  0  0  0  0  0
   11.3112   -8.9314   31.4821 C   0  0  0  0  0  0  0  0  0  0  0  0
   11.8151  -10.1644   31.6693 C   0  0  0  0  0  0  0  0  0  0  0  0
   11.8624  -11.0739   30.5827 C   0  0  0  0  0  0  0  0  0  0  0  0
   12.2978  -12.3111   30.4801 N   0  0  0  0  0  0  0  0  0  0  0  0
   12.0996  -12.7196   29.1825 N   0  0  0  0  0  0  0  0  0  0  0  0
   11.5509  -11.7204   28.5282 C   0  0  0  0  0  0  0  0  0  0  0  0
   11.3558  -10.6480   29.3617 N   0  0  0  0  0  0  0  0  0  0  0  0
    7.6642   -8.6072   28.7239 N   0  0  0  0  0  0  0  0  0  0  0  0
    7.5118   -9.8814   29.3629 C   0  0  0  0  0  0  0  0  0  0  0  0
    6.6374   -7.7376   28.7353 N   0  0  0  0  0  0  0  0  0  0  0  0
    5.0236   -5.4300   28.0127 C   0  0  0  0  0  0  0  0  0  0  0  0
    0.5332   -5.5866   31.6320 C   0  0  0  0  0  0  0  0  0  0  0  0
    0.2005   -5.5564   33.3954 C   0  0  0  0  0  0  0  0  0  0  0  0
    1.6394   -7.4580   37.1024 H   0  0  0  0  0  0  0  0  0  0  0  0
    0.4014   -6.2878   36.6094 H   0  0  0  0  0  0  0  0  0  0  0  0
    0.0325   -8.0320   36.5786 H   0  0  0  0  0  0  0  0  0  0  0  0
    0.5204   -4.1542   34.4767 H   0  0  0  0  0  0  0  0  0  0  0  0
    1.6022   -5.1673   34.7444 H   0  0  0  0  0  0  0  0  0  0  0  0
    2.6336   -3.8159   33.0457 H   0  0  0  0  0  0  0  0  0  0  0  0
    3.1078   -5.5539   33.2174 H   0  0  0  0  0  0  0  0  0  0  0  0
    3.5899   -4.3703   30.6304 H   0  0  0  0  0  0  0  0  0  0  0  0
    1.0827   -4.9889   29.0148 H   0  0  0  0  0  0  0  0  0  0  0  0
    2.4255   -3.2356   27.6985 H   0  0  0  0  0  0  0  0  0  0  0  0
    2.4735   -4.8851   27.0973 H   0  0  0  0  0  0  0  0  0  0  0  0
    4.4590   -2.1517   27.2818 H   0  0  0  0  0  0  0  0  0  0  0  0
    6.8998   -2.2259   26.9088 H   0  0  0  0  0  0  0  0  0  0  0  0
    8.1448   -4.3323   27.2094 H   0  0  0  0  0  0  0  0  0  0  0  0
   10.4216   -7.4899   30.1144 H   0  0  0  0  0  0  0  0  0  0  0  0
   11.2718   -8.2197   32.3022 H   0  0  0  0  0  0  0  0  0  0  0  0
   12.1943  -10.4854   32.6330 H   0  0  0  0  0  0  0  0  0  0  0  0
   11.2786  -11.7275   27.4831 H   0  0  0  0  0  0  0  0  0  0  0  0
    7.3338  -10.6212   28.5829 H   0  0  0  0  0  0  0  0  0  0  0  0
    6.6712   -9.8434   30.0534 H   0  0  0  0  0  0  0  0  0  0  0  0
    8.4005  -10.1201   29.9414 H   0  0  0  0  0  0  0  0  0  0  0  0
    4.4972   -6.3347   28.3041 H   0  0  0  0  0  0  0  0  0  0  0  0
    0.4294   -6.6121   31.2587 H   0  0  0  0  0  0  0  0  0  0  0  0
   -0.1765   -4.8961   31.1613 H   0  0  0  0  0  0  0  0  0  0  0  0
   -0.8682   -4.9502   33.6424 H   0  0  0  0  0  0  0  0  0  0  0  0
   -0.7139   -6.1612   32.9922 H   0  0  0  0  0  0  0  0  0  0  0  0
  1  2  1  0
  2  3  2  0
  2  4  1  0
  4  5  1  0
  5  6  1  0
  6  7  1  0
  7  8  1  0
  8  9  2  3
  9 10  1  0
 10 11  1  0
 11 12  2  0
 12 13  1  0
 13 14  2  0
 14 15  1  0
 15 16  1  0
 16 17  1  0
 17 18  2  0
 18 19  1  0
 19 20  1  0
 20 21  2  0
 21 22  1  0
 22 23  2  0
 23 24  1  0
 24 25  2  0
 25 26  1  0
 26 27  2  0
 27 28  1  0
 18 29  1  0
 29 30  1  0
 29 31  1  0
 15 32  2  0
  7 33  1  0
 33 34  1  0
 34  4  1  0
 32 11  1  0
 31 16  2  0
 28 20  1  0
 28 24  1  0
  1 35  1  0
  1 36  1  0
  1 37  1  0
  5 38  1  0
  5 39  1  0
  6 40  1  0
  6 41  1  0
  8 42  1  0
  9 43  1  0
 10 44  1  0
 10 45  1  0
 12 46  1  0
 13 47  1  0
 14 48  1  0
 21 49  1  0
 22 50  1  0
 23 51  1  0
 27 52  1  0
 30 53  1  0
 30 54  1  0
 30 55  1  0
 32 56  1  0
 33 57  1  0
 33 58  1  0
 34 59  1  0
 34 60  1  0
M  END
>  <Energy>  (682) 
679.40484289953974

>  <compound_id>  (682) 
2786

>  <target_id>  (682) 
1

>  <reference_id>  (682) 
183

>  <inspiration_ids>  (682) 
[183, 175]

>  <energy_score>  (682) 
482.39979114241305

>  <distance_score>  (682) 
2.8487711688396056

>  <path>  (682) 
/opt/xchem-fragalysis-2/maxwin/BulkDock/SCRATCH/505736/C2786-P183/C2786-P183.minimised.mol

>  <scratch_subdir>  (682) 
/opt/xchem-fragalysis-2/maxwin/BulkDock/SCRATCH/505736/C2786-P183

>  <fragmenstein_runtime>  (682) 
31.875654458999634

>  <fragmenstein_outcome>  (682) 
too moved

>  <fragmenstein_mode>  (682) 
expansion

>  <fragmenstein_error>  (682) 


$$$$
C2786-P175
     RDKit          3D

 60 64  0  0  0  0  0  0  0  0999 V2000
    1.4222   -7.1676   36.6811 C   0  0  0  0  0  0  0  0  0  0  0  0
    1.5517   -7.4477   35.2049 C   0  0  0  0  0  0  0  0  0  0  0  0
    2.5540   -7.9651   34.7246 O   0  0  0  0  0  0  0  0  0  0  0  0
    0.4320   -7.0979   34.4898 N   0  0  0  0  0  0  0  0  0  0  0  0
    0.6686   -5.3679   33.9557 C   0  0  0  0  0  0  0  0  0  0  0  0
    1.8361   -5.1125   32.7193 C   0  0  0  0  0  0  0  0  0  0  0  0
    1.1375   -5.5293   31.5310 N   0  0  0  0  0  0  0  0  0  0  0  0
    1.4676   -5.2079   30.2388 C   0  0  0  0  0  0  0  0  0  0  0  0
    2.6104   -4.6655   29.8020 C   0  0  0  0  0  0  0  0  0  0  0  0
    2.9173   -4.3040   28.3729 C   0  0  0  0  0  0  0  0  0  0  0  0
    3.8483   -5.2771   27.6885 C   0  0  0  0  0  0  0  0  0  0  0  0
    3.6600   -5.6196   26.3473 C   0  0  0  0  0  0  0  0  0  0  0  0
    4.5009   -6.5355   25.7138 C   0  0  0  0  0  0  0  0  0  0  0  0
    5.5540   -7.1094   26.4123 C   0  0  0  0  0  0  0  0  0  0  0  0
    5.7743   -6.7628   27.7463 C   0  0  0  0  0  0  0  0  0  0  0  0
    6.8014   -7.4289   28.5181 C   0  0  0  0  0  0  0  0  0  0  0  0
    7.3087   -8.6348   28.1158 N   0  0  0  0  0  0  0  0  0  0  0  0
    8.1017   -8.9685   29.0970 C   0  0  0  0  0  0  0  0  0  0  0  0
    9.0871  -10.3756   29.1141 S   0  0  0  0  0  0  0  0  0  0  0  0
   10.3334   -9.7229   28.0957 C   0  0  0  0  0  0  0  0  0  0  0  0
   11.5390   -9.4436   28.6332 C   0  0  0  0  0  0  0  0  0  0  0  0
   12.5861   -8.8869   27.7958 C   0  0  0  0  0  0  0  0  0  0  0  0
   12.3852   -8.6391   26.4886 C   0  0  0  0  0  0  0  0  0  0  0  0
   11.1300   -8.9378   25.8989 C   0  0  0  0  0  0  0  0  0  0  0  0
   10.6774   -8.8034   24.6696 N   0  0  0  0  0  0  0  0  0  0  0  0
    9.3927   -9.2821   24.6458 N   0  0  0  0  0  0  0  0  0  0  0  0
    9.0939   -9.6972   25.8588 C   0  0  0  0  0  0  0  0  0  0  0  0
   10.1444   -9.4832   26.7167 N   0  0  0  0  0  0  0  0  0  0  0  0
    8.0764   -8.0142   30.0653 N   0  0  0  0  0  0  0  0  0  0  0  0
    8.7804   -7.9721   31.3197 C   0  0  0  0  0  0  0  0  0  0  0  0
    7.2450   -7.0136   29.7167 N   0  0  0  0  0  0  0  0  0  0  0  0
    4.9395   -5.8288   28.3636 C   0  0  0  0  0  0  0  0  0  0  0  0
   -0.1138   -6.1039   31.9682 C   0  0  0  0  0  0  0  0  0  0  0  0
   -0.0535   -5.8994   33.7522 C   0  0  0  0  0  0  0  0  0  0  0  0
    1.6672   -8.0704   37.2454 H   0  0  0  0  0  0  0  0  0  0  0  0
    0.4042   -6.8633   36.9419 H   0  0  0  0  0  0  0  0  0  0  0  0
    2.1131   -6.3659   36.9550 H   0  0  0  0  0  0  0  0  0  0  0  0
    0.3598   -4.3598   34.5844 H   0  0  0  0  0  0  0  0  0  0  0  0
    1.5646   -5.2572   34.7019 H   0  0  0  0  0  0  0  0  0  0  0  0
    2.7252   -5.7219   32.9113 H   0  0  0  0  0  0  0  0  0  0  0  0
    2.0767   -4.0435   32.7075 H   0  0  0  0  0  0  0  0  0  0  0  0
    0.6696   -5.4316   29.5381 H   0  0  0  0  0  0  0  0  0  0  0  0
    3.3893   -4.4280   30.5214 H   0  0  0  0  0  0  0  0  0  0  0  0
    3.3744   -3.3072   28.3488 H   0  0  0  0  0  0  0  0  0  0  0  0
    1.9813   -4.2249   27.8072 H   0  0  0  0  0  0  0  0  0  0  0  0
    2.8540   -5.1640   25.7874 H   0  0  0  0  0  0  0  0  0  0  0  0
    4.3568   -6.8149   24.6732 H   0  0  0  0  0  0  0  0  0  0  0  0
    6.1971   -7.8268   25.9035 H   0  0  0  0  0  0  0  0  0  0  0  0
   11.7730   -9.6148   29.6798 H   0  0  0  0  0  0  0  0  0  0  0  0
   13.5452   -8.6670   28.2570 H   0  0  0  0  0  0  0  0  0  0  0  0
   13.1654   -8.2180   25.8634 H   0  0  0  0  0  0  0  0  0  0  0  0
    8.1552  -10.1402   26.1588 H   0  0  0  0  0  0  0  0  0  0  0  0
    8.4263   -7.1212   31.9081 H   0  0  0  0  0  0  0  0  0  0  0  0
    9.8478   -7.8613   31.1154 H   0  0  0  0  0  0  0  0  0  0  0  0
    8.5836   -8.8979   31.8656 H   0  0  0  0  0  0  0  0  0  0  0  0
    5.1369   -5.5512   29.3970 H   0  0  0  0  0  0  0  0  0  0  0  0
   -0.1908   -7.1696   31.7239 H   0  0  0  0  0  0  0  0  0  0  0  0
   -0.9720   -5.5276   31.6057 H   0  0  0  0  0  0  0  0  0  0  0  0
   -0.9721   -6.6092   33.6245 H   0  0  0  0  0  0  0  0  0  0  0  0
   -1.0917   -5.3519   34.1855 H   0  0  0  0  0  0  0  0  0  0  0  0
  1  2  1  0
  2  3  2  0
  2  4  1  0
  4  5  1  0
  5  6  1  0
  6  7  1  0
  7  8  1  0
  8  9  2  3
  9 10  1  0
 10 11  1  0
 11 12  2  0
 12 13  1  0
 13 14  2  0
 14 15  1  0
 15 16  1  0
 16 17  1  0
 17 18  2  0
 18 19  1  0
 19 20  1  0
 20 21  2  0
 21 22  1  0
 22 23  2  0
 23 24  1  0
 24 25  2  0
 25 26  1  0
 26 27  2  0
 27 28  1  0
 18 29  1  0
 29 30  1  0
 29 31  1  0
 15 32  2  0
  7 33  1  0
 33 34  1  0
 34  4  1  0
 32 11  1  0
 31 16  2  0
 28 20  1  0
 28 24  1  0
  1 35  1  0
  1 36  1  0
  1 37  1  0
  5 38  1  0
  5 39  1  0
  6 40  1  0
  6 41  1  0
  8 42  1  0
  9 43  1  0
 10 44  1  0
 10 45  1  0
 12 46  1  0
 13 47  1  0
 14 48  1  0
 21 49  1  0
 22 50  1  0
 23 51  1  0
 27 52  1  0
 30 53  1  0
 30 54  1  0
 30 55  1  0
 32 56  1  0
 33 57  1  0
 33 58  1  0
 34 59  1  0
 34 60  1  0
M  END
>  <Energy>  (683) 
674.0513492039637

>  <compound_id>  (683) 
2786

>  <target_id>  (683) 
1

>  <reference_id>  (683) 
175

>  <inspiration_ids>  (683) 
[183, 175]

>  <energy_score>  (683) 
477.04629744682893

>  <distance_score>  (683) 
2.8509212812711278

>  <path>  (683) 
/opt/xchem-fragalysis-2/maxwin/BulkDock/SCRATCH/505736/C2786-P175/C2786-P175.minimised.mol

>  <scratch_subdir>  (683) 
/opt/xchem-fragalysis-2/maxwin/BulkDock/SCRATCH/505736/C2786-P175

>  <fragmenstein_runtime>  (683) 
25.739675521850586

>  <fragmenstein_outcome>  (683) 
too moved

>  <fragmenstein_mode>  (683) 
expansion

>  <fragmenstein_error>  (683) 


$$$$
C2789-P183
     RDKit          3D

 41 43  0  0  0  0  0  0  0  0999 V2000
    0.0042   -7.3626   35.3351 C   0  0  0  0  0  0  0  0  0  0  0  0
    1.1220   -6.4911   34.7981 C   0  0  0  0  0  0  0  0  0  0  0  0
    1.1846   -6.4768   33.2811 C   0  0  0  0  0  0  0  0  0  0  0  0
   -0.1148   -5.9859   32.6314 C   0  0  0  0  0  0  0  0  0  0  0  0
   -1.1209   -7.0927   33.0876 C   0  0  0  0  0  0  0  0  0  0  0  0
   -1.3071   -7.2107   34.5971 C   0  0  0  0  0  0  0  0  0  0  0  0
   -0.5679   -4.5854   33.1696 C   0  0  0  0  0  0  0  0  0  0  0  0
    0.4081   -3.6125   33.5177 O   0  0  0  0  0  0  0  0  0  0  0  0
    1.2870   -3.0971   32.5379 C   0  0  0  0  0  0  0  0  0  0  0  0
    0.9164   -1.8954   31.8644 O   0  0  0  0  0  0  0  0  0  0  0  0
   -0.4062   -1.7467   31.3711 C   0  0  0  0  0  0  0  0  0  0  0  0
   -0.6778   -2.5564   30.1086 C   0  0  0  0  0  0  0  0  0  0  0  0
   -0.8396   -3.8887   30.5338 O   0  0  0  0  0  0  0  0  0  0  0  0
    0.0034   -4.9286   30.0894 C   0  0  0  0  0  0  0  0  0  0  0  0
   -0.0527   -6.1343   31.0587 C   0  0  0  0  0  0  0  0  0  0  0  0
    1.3460   -4.6521   29.6305 N   0  0  0  0  0  0  0  0  0  0  0  0
    2.1882   -3.8595   30.4767 C   0  0  0  0  0  0  0  0  0  0  0  0
    1.9498   -4.1126   31.8153 O   0  0  0  0  0  0  0  0  0  0  0  0
    0.3224   -8.4003   35.2826 H   0  0  0  0  0  0  0  0  0  0  0  0
   -0.1448   -7.1597   36.4025 H   0  0  0  0  0  0  0  0  0  0  0  0
    1.0146   -5.4749   35.1916 H   0  0  0  0  0  0  0  0  0  0  0  0
    2.0766   -6.8600   35.1936 H   0  0  0  0  0  0  0  0  0  0  0  0
    2.0721   -5.9242   32.9823 H   0  0  0  0  0  0  0  0  0  0  0  0
    1.3675   -7.4933   32.9525 H   0  0  0  0  0  0  0  0  0  0  0  0
   -0.7898   -8.0726   32.7132 H   0  0  0  0  0  0  0  0  0  0  0  0
   -2.0678   -6.9266   32.5961 H   0  0  0  0  0  0  0  0  0  0  0  0
   -1.8275   -6.3439   35.0034 H   0  0  0  0  0  0  0  0  0  0  0  0
   -1.9613   -8.0580   34.8238 H   0  0  0  0  0  0  0  0  0  0  0  0
   -1.0526   -4.7336   34.1335 H   0  0  0  0  0  0  0  0  0  0  0  0
   -1.3791   -4.1476   32.5925 H   0  0  0  0  0  0  0  0  0  0  0  0
    2.1020   -2.7187   33.1637 H   0  0  0  0  0  0  0  0  0  0  0  0
   -0.5157   -0.6860   31.1197 H   0  0  0  0  0  0  0  0  0  0  0  0
   -1.1281   -1.9573   32.1662 H   0  0  0  0  0  0  0  0  0  0  0  0
    0.0962   -2.4278   29.3490 H   0  0  0  0  0  0  0  0  0  0  0  0
   -1.6303   -2.2360   29.6741 H   0  0  0  0  0  0  0  0  0  0  0  0
   -0.5042   -5.2771   29.1922 H   0  0  0  0  0  0  0  0  0  0  0  0
    0.7449   -6.8408   30.7937 H   0  0  0  0  0  0  0  0  0  0  0  0
   -0.9603   -6.6749   30.7527 H   0  0  0  0  0  0  0  0  0  0  0  0
    1.2880   -4.2035   28.7204 H   0  0  0  0  0  0  0  0  0  0  0  0
    3.2194   -4.1707   30.2754 H   0  0  0  0  0  0  0  0  0  0  0  0
    2.1727   -2.7990   30.2065 H   0  0  0  0  0  0  0  0  0  0  0  0
  1  2  1  0
  2  3  1  0
  3  4  1  0
  4  5  1  0
  5  6  1  0
  4  7  1  0
  7  8  1  0
  8  9  1  0
  9 10  1  0
 10 11  1  0
 11 12  1  0
 12 13  1  0
 13 14  1  0
 14 15  1  0
 14 16  1  0
 16 17  1  0
 17 18  1  0
  6  1  1  0
 18  9  1  0
 15  4  1  0
  1 19  1  0
  1 20  1  0
  2 21  1  0
  2 22  1  0
  3 23  1  0
  3 24  1  0
  5 25  1  0
  5 26  1  0
  6 27  1  0
  6 28  1  0
  7 29  1  0
  7 30  1  0
  9 31  1  0
 11 32  1  0
 11 33  1  0
 12 34  1  0
 12 35  1  0
 14 36  1  0
 15 37  1  0
 15 38  1  0
 16 39  1  0
 17 40  1  0
 17 41  1  0
M  END
>  <Energy>  (684) 
-8.1785022965704215

>  <compound_id>  (684) 
2789

>  <target_id>  (684) 
1

>  <reference_id>  (684) 
183

>  <inspiration_ids>  (684) 
[183, 186]

>  <energy_score>  (684) 
-281.62281315322366

>  <distance_score>  (684) 
2.684348958305734

>  <path>  (684) 
/opt/xchem-fragalysis-2/maxwin/BulkDock/SCRATCH/505736/C2789-P183/C2789-P183.minimised.mol

>  <scratch_subdir>  (684) 
/opt/xchem-fragalysis-2/maxwin/BulkDock/SCRATCH/505736/C2789-P183

>  <fragmenstein_runtime>  (684) 
7.8856542110443115

>  <fragmenstein_outcome>  (684) 
too moved

>  <fragmenstein_mode>  (684) 
expansion

>  <fragmenstein_error>  (684) 


$$$$
C2789-P186
     RDKit          3D

 41 43  0  0  0  0  0  0  0  0999 V2000
    0.4646   -7.3066   35.4734 C   0  0  0  0  0  0  0  0  0  0  0  0
    1.4397   -6.3964   34.7574 C   0  0  0  0  0  0  0  0  0  0  0  0
    1.2192   -6.4098   33.2598 C   0  0  0  0  0  0  0  0  0  0  0  0
   -0.1765   -5.9472   32.8602 C   0  0  0  0  0  0  0  0  0  0  0  0
   -1.1106   -7.0002   33.5445 C   0  0  0  0  0  0  0  0  0  0  0  0
   -0.9745   -7.1076   35.0563 C   0  0  0  0  0  0  0  0  0  0  0  0
   -0.5764   -4.5195   33.3771 C   0  0  0  0  0  0  0  0  0  0  0  0
    0.4686   -3.5885   33.6893 O   0  0  0  0  0  0  0  0  0  0  0  0
    0.9794   -2.8939   32.5468 C   0  0  0  0  0  0  0  0  0  0  0  0
   -0.1264   -2.2200   31.9729 O   0  0  0  0  0  0  0  0  0  0  0  0
   -0.0961   -1.7567   30.6420 C   0  0  0  0  0  0  0  0  0  0  0  0
   -0.6056   -2.8317   29.6750 C   0  0  0  0  0  0  0  0  0  0  0  0
   -0.8608   -4.0097   30.4194 O   0  0  0  0  0  0  0  0  0  0  0  0
   -0.0374   -5.1483   30.2363 C   0  0  0  0  0  0  0  0  0  0  0  0
   -0.3857   -6.1918   31.3219 C   0  0  0  0  0  0  0  0  0  0  0  0
    1.3888   -5.0229   30.0061 N   0  0  0  0  0  0  0  0  0  0  0  0
    2.0583   -3.9088   30.6027 C   0  0  0  0  0  0  0  0  0  0  0  0
    1.7888   -3.8707   31.9459 O   0  0  0  0  0  0  0  0  0  0  0  0
    0.5616   -7.1868   36.5584 H   0  0  0  0  0  0  0  0  0  0  0  0
    0.7507   -8.3307   35.2532 H   0  0  0  0  0  0  0  0  0  0  0  0
    2.4611   -6.7330   34.9741 H   0  0  0  0  0  0  0  0  0  0  0  0
    1.3650   -5.3830   35.1632 H   0  0  0  0  0  0  0  0  0  0  0  0
    1.3310   -7.4336   32.9212 H   0  0  0  0  0  0  0  0  0  0  0  0
    2.0298   -5.8682   32.7802 H   0  0  0  0  0  0  0  0  0  0  0  0
   -0.9331   -7.9949   33.1119 H   0  0  0  0  0  0  0  0  0  0  0  0
   -2.1332   -6.7566   33.3099 H   0  0  0  0  0  0  0  0  0  0  0  0
   -1.3796   -6.2225   35.5557 H   0  0  0  0  0  0  0  0  0  0  0  0
   -1.5789   -7.9475   35.4159 H   0  0  0  0  0  0  0  0  0  0  0  0
   -1.0717   -4.6202   34.3427 H   0  0  0  0  0  0  0  0  0  0  0  0
   -1.3513   -4.0688   32.7514 H   0  0  0  0  0  0  0  0  0  0  0  0
    1.6532   -2.1200   32.9275 H   0  0  0  0  0  0  0  0  0  0  0  0
    0.8751   -1.3323   30.3716 H   0  0  0  0  0  0  0  0  0  0  0  0
   -0.7881   -0.9074   30.5858 H   0  0  0  0  0  0  0  0  0  0  0  0
    0.0595   -2.9890   28.8194 H   0  0  0  0  0  0  0  0  0  0  0  0
   -1.5623   -2.5019   29.2552 H   0  0  0  0  0  0  0  0  0  0  0  0
   -0.4065   -5.5916   29.3145 H   0  0  0  0  0  0  0  0  0  0  0  0
   -1.4502   -6.4055   31.2020 H   0  0  0  0  0  0  0  0  0  0  0  0
    0.1013   -7.1394   31.0457 H   0  0  0  0  0  0  0  0  0  0  0  0
    1.8349   -5.8645   30.3531 H   0  0  0  0  0  0  0  0  0  0  0  0
    3.1326   -4.1102   30.5088 H   0  0  0  0  0  0  0  0  0  0  0  0
    1.9495   -2.9705   30.0673 H   0  0  0  0  0  0  0  0  0  0  0  0
  1  2  1  0
  2  3  1  0
  3  4  1  0
  4  5  1  0
  5  6  1  0
  4  7  1  0
  7  8  1  0
  8  9  1  0
  9 10  1  0
 10 11  1  0
 11 12  1  0
 12 13  1  0
 13 14  1  0
 14 15  1  0
 14 16  1  0
 16 17  1  0
 17 18  1  0
  6  1  1  0
 18  9  1  0
 15  4  1  0
  1 19  1  0
  1 20  1  0
  2 21  1  0
  2 22  1  0
  3 23  1  0
  3 24  1  0
  5 25  1  0
  5 26  1  0
  6 27  1  0
  6 28  1  0
  7 29  1  0
  7 30  1  0
  9 31  1  0
 11 32  1  0
 11 33  1  0
 12 34  1  0
 12 35  1  0
 14 36  1  0
 15 37  1  0
 15 38  1  0
 16 39  1  0
 17 40  1  0
 17 41  1  0
M  END
>  <Energy>  (685) 
-2.7151388241580392

>  <compound_id>  (685) 
2789

>  <target_id>  (685) 
1

>  <reference_id>  (685) 
186

>  <inspiration_ids>  (685) 
[183, 186]

>  <energy_score>  (685) 
-276.1594496808114

>  <distance_score>  (685) 
2.732784209900435

>  <path>  (685) 
/opt/xchem-fragalysis-2/maxwin/BulkDock/SCRATCH/505736/C2789-P186/C2789-P186.minimised.mol

>  <scratch_subdir>  (685) 
/opt/xchem-fragalysis-2/maxwin/BulkDock/SCRATCH/505736/C2789-P186

>  <fragmenstein_runtime>  (685) 
8.779550313949585

>  <fragmenstein_outcome>  (685) 
too moved

>  <fragmenstein_mode>  (685) 
expansion

>  <fragmenstein_error>  (685) 


$$$$
C2791-P183
     RDKit          3D

 40 43  0  0  0  0  0  0  0  0999 V2000
   -2.0290    1.7068   27.5634 C   0  0  0  0  0  0  0  0  0  0  0  0
   -0.8847    1.1998   28.3872 C   0  0  0  0  0  0  0  0  0  0  0  0
    0.3781    1.7155   28.1489 C   0  0  0  0  0  0  0  0  0  0  0  0
    1.4731    1.1958   28.8272 C   0  0  0  0  0  0  0  0  0  0  0  0
    1.3333    0.1627   29.7577 C   0  0  0  0  0  0  0  0  0  0  0  0
    0.0892   -0.3923   30.0216 C   0  0  0  0  0  0  0  0  0  0  0  0
    0.0218   -1.6427   30.7933 C   0  0  0  0  0  0  0  0  0  0  0  0
    1.1625   -2.2791   31.2612 N   0  0  0  0  0  0  0  0  0  0  0  0
    0.8772   -3.5449   31.0589 C   0  0  0  0  0  0  0  0  0  0  0  0
    1.8703   -4.9239   31.3070 S   0  0  0  0  0  0  0  0  0  0  0  0
    0.7562   -5.7990   32.3132 C   0  0  0  0  0  0  0  0  0  0  0  0
    0.5980   -5.4903   33.6156 C   0  0  0  0  0  0  0  0  0  0  0  0
   -0.3368   -6.2598   34.4230 C   0  0  0  0  0  0  0  0  0  0  0  0
   -1.0755   -7.2539   33.8959 C   0  0  0  0  0  0  0  0  0  0  0  0
   -0.9574   -7.5532   32.5154 C   0  0  0  0  0  0  0  0  0  0  0  0
   -1.5752   -8.3988   31.7192 N   0  0  0  0  0  0  0  0  0  0  0  0
   -0.9942   -8.3131   30.4801 N   0  0  0  0  0  0  0  0  0  0  0  0
   -0.0396   -7.4220   30.5583 C   0  0  0  0  0  0  0  0  0  0  0  0
   -0.0136   -6.8452   31.7922 N   0  0  0  0  0  0  0  0  0  0  0  0
   -0.3107   -3.6101   30.3856 N   0  0  0  0  0  0  0  0  0  0  0  0
   -0.4242   -4.1317   29.0442 C   0  0  0  0  0  0  0  0  0  0  0  0
   -1.0082   -2.5073   30.6942 N   0  0  0  0  0  0  0  0  0  0  0  0
   -1.0002    0.1513   29.3224 C   0  0  0  0  0  0  0  0  0  0  0  0
   -2.2487   -0.5573   29.4357 C   0  0  0  0  0  0  0  0  0  0  0  0
   -2.6909   -1.2796   28.5684 O   0  0  0  0  0  0  0  0  0  0  0  0
   -2.7887   -0.3778   30.6568 O   0  0  0  0  0  0  0  0  0  0  0  0
   -1.7774    2.6494   27.0648 H   0  0  0  0  0  0  0  0  0  0  0  0
   -2.2810    0.9775   26.7892 H   0  0  0  0  0  0  0  0  0  0  0  0
   -2.8945    1.9117   28.1905 H   0  0  0  0  0  0  0  0  0  0  0  0
    0.5284    2.5144   27.4263 H   0  0  0  0  0  0  0  0  0  0  0  0
    2.4638    1.6012   28.6289 H   0  0  0  0  0  0  0  0  0  0  0  0
    2.2282   -0.2293   30.2383 H   0  0  0  0  0  0  0  0  0  0  0  0
    1.1406   -4.6839   34.1015 H   0  0  0  0  0  0  0  0  0  0  0  0
   -0.4307   -6.0119   35.4776 H   0  0  0  0  0  0  0  0  0  0  0  0
   -1.7576   -7.8394   34.5061 H   0  0  0  0  0  0  0  0  0  0  0  0
    0.6581   -7.1586   29.7874 H   0  0  0  0  0  0  0  0  0  0  0  0
   -0.7620   -5.1555   29.1233 H   0  0  0  0  0  0  0  0  0  0  0  0
    0.5554   -4.0843   28.5606 H   0  0  0  0  0  0  0  0  0  0  0  0
   -1.1204   -3.5163   28.4815 H   0  0  0  0  0  0  0  0  0  0  0  0
   -3.3096   -1.2014   30.7543 H   0  0  0  0  0  0  0  0  0  0  0  0
  1  2  1  0
  2  3  2  0
  3  4  1  0
  4  5  2  0
  5  6  1  0
  6  7  1  0
  7  8  1  0
  8  9  2  0
  9 10  1  0
 10 11  1  0
 11 12  2  0
 12 13  1  0
 13 14  2  0
 14 15  1  0
 15 16  2  0
 16 17  1  0
 17 18  2  0
 18 19  1  0
  9 20  1  0
 20 21  1  0
 20 22  1  0
  6 23  2  0
 23 24  1  0
 24 25  2  0
 24 26  1  0
 23  2  1  0
 22  7  2  0
 19 11  1  0
 19 15  1  0
  1 27  1  0
  1 28  1  0
  1 29  1  0
  3 30  1  0
  4 31  1  0
  5 32  1  0
 12 33  1  0
 13 34  1  0
 14 35  1  0
 18 36  1  0
 21 37  1  0
 21 38  1  0
 21 39  1  0
 26 40  1  0
M  END
>  <Energy>  (686) 
85.301918715779209

>  <compound_id>  (686) 
2791

>  <target_id>  (686) 
1

>  <reference_id>  (686) 
183

>  <inspiration_ids>  (686) 
[183, 188]

>  <energy_score>  (686) 
-35.07753464661954

>  <distance_score>  (686) 
2.7292392819487135

>  <path>  (686) 
/opt/xchem-fragalysis-2/maxwin/BulkDock/SCRATCH/505736/C2791-P183/C2791-P183.minimised.mol

>  <scratch_subdir>  (686) 
/opt/xchem-fragalysis-2/maxwin/BulkDock/SCRATCH/505736/C2791-P183

>  <fragmenstein_runtime>  (686) 
45.57139849662781

>  <fragmenstein_outcome>  (686) 
too moved

>  <fragmenstein_mode>  (686) 
expansion

>  <fragmenstein_error>  (686) 


$$$$
C2791-P188
     RDKit          3D

 40 43  0  0  0  0  0  0  0  0999 V2000
   -1.4257   -2.2137   28.5244 C   0  0  0  0  0  0  0  0  0  0  0  0
   -0.8722   -0.9286   29.0188 C   0  0  0  0  0  0  0  0  0  0  0  0
   -0.8947    0.2214   28.2076 C   0  0  0  0  0  0  0  0  0  0  0  0
   -0.3356    1.4323   28.6512 C   0  0  0  0  0  0  0  0  0  0  0  0
    0.2643    1.5110   29.9072 C   0  0  0  0  0  0  0  0  0  0  0  0
    0.2403    0.3648   30.6578 C   0  0  0  0  0  0  0  0  0  0  0  0
    0.7032   -0.0983   31.8924 C   0  0  0  0  0  0  0  0  0  0  0  0
    1.7697   -1.6879   31.4848 N   0  0  0  0  0  0  0  0  0  0  0  0
    1.2127   -3.0446   32.3948 C   0  0  0  0  0  0  0  0  0  0  0  0
    2.0922   -4.5120   32.6258 S   0  0  0  0  0  0  0  0  0  0  0  0
    0.8101   -5.6039   33.0026 C   0  0  0  0  0  0  0  0  0  0  0  0
    0.5769   -5.9546   34.2853 C   0  0  0  0  0  0  0  0  0  0  0  0
   -0.4815   -6.8992   34.5937 C   0  0  0  0  0  0  0  0  0  0  0  0
   -1.1854   -7.4952   33.6167 C   0  0  0  0  0  0  0  0  0  0  0  0
   -0.8824   -7.2240   32.2611 C   0  0  0  0  0  0  0  0  0  0  0  0
   -1.3177   -7.7444   31.1357 N   0  0  0  0  0  0  0  0  0  0  0  0
   -0.6534   -7.1207   30.1102 N   0  0  0  0  0  0  0  0  0  0  0  0
    0.1365   -6.2077   30.6312 C   0  0  0  0  0  0  0  0  0  0  0  0
    0.0806   -6.2587   31.9971 N   0  0  0  0  0  0  0  0  0  0  0  0
   -0.2400   -2.4230   33.3836 N   0  0  0  0  0  0  0  0  0  0  0  0
   -0.5516   -2.9067   34.7057 C   0  0  0  0  0  0  0  0  0  0  0  0
   -0.5505   -0.6228   32.9915 N   0  0  0  0  0  0  0  0  0  0  0  0
   -0.2755   -0.8212   30.2600 C   0  0  0  0  0  0  0  0  0  0  0  0
   -0.1057   -1.8283   31.4597 C   0  0  0  0  0  0  0  0  0  0  0  0
   -0.8219   -2.8582   31.3585 O   0  0  0  0  0  0  0  0  0  0  0  0
    1.0910   -1.3791   33.0069 O   0  0  0  0  0  0  0  0  0  0  0  0
   -2.0455   -2.6949   29.2812 H   0  0  0  0  0  0  0  0  0  0  0  0
   -2.0599   -2.0228   27.6566 H   0  0  0  0  0  0  0  0  0  0  0  0
   -0.6162   -2.8947   28.2493 H   0  0  0  0  0  0  0  0  0  0  0  0
   -1.3575    0.1780   27.2210 H   0  0  0  0  0  0  0  0  0  0  0  0
   -0.3810    2.3096   28.0087 H   0  0  0  0  0  0  0  0  0  0  0  0
    0.7094    2.4317   30.2635 H   0  0  0  0  0  0  0  0  0  0  0  0
    1.1411   -5.5508   35.1209 H   0  0  0  0  0  0  0  0  0  0  0  0
   -0.6977   -7.1256   35.6355 H   0  0  0  0  0  0  0  0  0  0  0  0
   -1.9716   -8.2044   33.8418 H   0  0  0  0  0  0  0  0  0  0  0  0
    0.7595   -5.5203   30.0780 H   0  0  0  0  0  0  0  0  0  0  0  0
    0.3807   -3.1269   35.2263 H   0  0  0  0  0  0  0  0  0  0  0  0
   -1.0983   -2.1221   35.2319 H   0  0  0  0  0  0  0  0  0  0  0  0
   -1.1774   -3.7900   34.6009 H   0  0  0  0  0  0  0  0  0  0  0  0
    2.0343   -1.2188   32.6823 H   0  0  0  0  0  0  0  0  0  0  0  0
  1  2  1  0
  2  3  2  0
  3  4  1  0
  4  5  2  0
  5  6  1  0
  6  7  1  0
  7  8  1  0
  8  9  2  0
  9 10  1  0
 10 11  1  0
 11 12  2  0
 12 13  1  0
 13 14  2  0
 14 15  1  0
 15 16  2  0
 16 17  1  0
 17 18  2  0
 18 19  1  0
  9 20  1  0
 20 21  1  0
 20 22  1  0
  6 23  2  0
 23 24  1  0
 24 25  2  0
 24 26  1  0
 23  2  1  0
 22  7  2  0
 19 11  1  0
 19 15  1  0
  1 27  1  0
  1 28  1  0
  1 29  1  0
  3 30  1  0
  4 31  1  0
  5 32  1  0
 12 33  1  0
 13 34  1  0
 14 35  1  0
 18 36  1  0
 21 37  1  0
 21 38  1  0
 21 39  1  0
 26 40  1  0
M  END
>  <Energy>  (687) 
1116.0424932971566

>  <compound_id>  (687) 
2791

>  <target_id>  (687) 
1

>  <reference_id>  (687) 
188

>  <inspiration_ids>  (687) 
[183, 188]

>  <energy_score>  (687) 
1011.5711833194044

>  <distance_score>  (687) 
2.4266752941587404

>  <path>  (687) 
/opt/xchem-fragalysis-2/maxwin/BulkDock/SCRATCH/505736/C2791-P188/C2791-P188.minimised.mol

>  <scratch_subdir>  (687) 
/opt/xchem-fragalysis-2/maxwin/BulkDock/SCRATCH/505736/C2791-P188

>  <fragmenstein_runtime>  (687) 
44.83981513977051

>  <fragmenstein_outcome>  (687) 
too moved

>  <fragmenstein_mode>  (687) 
expansion

>  <fragmenstein_error>  (687) 


$$$$
C2793-P183
     RDKit          3D

 34 37  0  0  0  0  0  0  0  0999 V2000
    0.8830   -3.0581   35.6816 C   0  0  0  0  0  0  0  0  0  0  0  0
    0.1885   -3.2126   34.4296 N   0  0  0  0  0  0  0  0  0  0  0  0
    0.3838   -2.3266   33.4493 N   0  0  0  0  0  0  0  0  0  0  0  0
   -0.5461   -2.6754   32.5476 C   0  0  0  0  0  0  0  0  0  0  0  0
   -0.7795   -1.8716   31.3478 C   0  0  0  0  0  0  0  0  0  0  0  0
   -1.0871   -2.4979   30.1327 C   0  0  0  0  0  0  0  0  0  0  0  0
   -1.2027   -1.7529   28.9544 C   0  0  0  0  0  0  0  0  0  0  0  0
   -0.9841   -0.3820   28.9590 C   0  0  0  0  0  0  0  0  0  0  0  0
   -0.6950    0.2573   30.1567 C   0  0  0  0  0  0  0  0  0  0  0  0
   -0.6240   -0.4707   31.3498 C   0  0  0  0  0  0  0  0  0  0  0  0
   -0.3921    0.4594   32.7957 Cl  0  0  0  0  0  0  0  0  0  0  0  0
   -1.1289   -3.9064   32.8221 N   0  0  0  0  0  0  0  0  0  0  0  0
   -0.6239   -4.2211   34.0100 C   0  0  0  0  0  0  0  0  0  0  0  0
   -0.4927   -5.8412   34.7337 S   0  0  0  0  0  0  0  0  0  0  0  0
    0.3421   -6.3956   33.3076 C   0  0  0  0  0  0  0  0  0  0  0  0
    1.5227   -5.8237   32.9944 C   0  0  0  0  0  0  0  0  0  0  0  0
    1.8262   -5.6142   31.5912 C   0  0  0  0  0  0  0  0  0  0  0  0
    1.0427   -6.0927   30.6115 C   0  0  0  0  0  0  0  0  0  0  0  0
   -0.0515   -6.9222   30.9463 C   0  0  0  0  0  0  0  0  0  0  0  0
   -0.8891   -7.6409   30.2335 N   0  0  0  0  0  0  0  0  0  0  0  0
   -1.7481   -8.2612   31.1072 N   0  0  0  0  0  0  0  0  0  0  0  0
   -1.4245   -7.8938   32.3227 C   0  0  0  0  0  0  0  0  0  0  0  0
   -0.3691   -7.0350   32.2878 N   0  0  0  0  0  0  0  0  0  0  0  0
    1.8371   -3.5860   35.6179 H   0  0  0  0  0  0  0  0  0  0  0  0
    0.2684   -3.4641   36.4887 H   0  0  0  0  0  0  0  0  0  0  0  0
    1.0544   -1.9937   35.8646 H   0  0  0  0  0  0  0  0  0  0  0  0
   -1.2101   -3.5759   30.0839 H   0  0  0  0  0  0  0  0  0  0  0  0
   -1.4556   -2.2494   28.0219 H   0  0  0  0  0  0  0  0  0  0  0  0
   -1.0595    0.1801   28.0307 H   0  0  0  0  0  0  0  0  0  0  0  0
   -0.5260    1.3301   30.1493 H   0  0  0  0  0  0  0  0  0  0  0  0
    2.1073   -5.2372   33.6968 H   0  0  0  0  0  0  0  0  0  0  0  0
    2.6575   -4.9559   31.3507 H   0  0  0  0  0  0  0  0  0  0  0  0
    1.2501   -5.8767   29.5715 H   0  0  0  0  0  0  0  0  0  0  0  0
   -1.8790   -8.2449   33.2363 H   0  0  0  0  0  0  0  0  0  0  0  0
  1  2  1  0
  2  3  1  0
  3  4  2  0
  4  5  1  0
  5  6  2  0
  6  7  1  0
  7  8  2  0
  8  9  1  0
  9 10  2  0
 10 11  1  0
  4 12  1  0
 12 13  2  0
 13 14  1  0
 14 15  1  0
 15 16  2  0
 16 17  1  0
 17 18  2  0
 18 19  1  0
 19 20  2  0
 20 21  1  0
 21 22  2  0
 22 23  1  0
 13  2  1  0
 23 15  1  0
 10  5  1  0
 23 19  1  0
  1 24  1  0
  1 25  1  0
  1 26  1  0
  6 27  1  0
  7 28  1  0
  8 29  1  0
  9 30  1  0
 16 31  1  0
 17 32  1  0
 18 33  1  0
 22 34  1  0
M  END
>  <Energy>  (688) 
86.140120650493884

>  <compound_id>  (688) 
2793

>  <target_id>  (688) 
1

>  <reference_id>  (688) 
183

>  <inspiration_ids>  (688) 
[183, 190]

>  <energy_score>  (688) 
-23.033756470972264

>  <distance_score>  (688) 
2.2974771175974324

>  <path>  (688) 
/opt/xchem-fragalysis-2/maxwin/BulkDock/SCRATCH/505736/C2793-P183/C2793-P183.minimised.mol

>  <scratch_subdir>  (688) 
/opt/xchem-fragalysis-2/maxwin/BulkDock/SCRATCH/505736/C2793-P183

>  <fragmenstein_runtime>  (688) 
8.740014791488647

>  <fragmenstein_outcome>  (688) 
too moved

>  <fragmenstein_mode>  (688) 
expansion

>  <fragmenstein_error>  (688) 


$$$$
C2793-P190
     RDKit          3D

 34 37  0  0  0  0  0  0  0  0999 V2000
    0.9941   -3.0582   35.6126 C   0  0  0  0  0  0  0  0  0  0  0  0
    0.2667   -3.2112   34.3793 N   0  0  0  0  0  0  0  0  0  0  0  0
    0.4161   -2.3093   33.4039 N   0  0  0  0  0  0  0  0  0  0  0  0
   -0.5172   -2.6802   32.5150 C   0  0  0  0  0  0  0  0  0  0  0  0
   -0.7832   -1.8909   31.3151 C   0  0  0  0  0  0  0  0  0  0  0  0
   -1.0303   -2.5377   30.0962 C   0  0  0  0  0  0  0  0  0  0  0  0
   -1.1627   -1.8022   28.9148 C   0  0  0  0  0  0  0  0  0  0  0  0
   -1.0323   -0.4193   28.9249 C   0  0  0  0  0  0  0  0  0  0  0  0
   -0.8168    0.2385   30.1292 C   0  0  0  0  0  0  0  0  0  0  0  0
   -0.7171   -0.4841   31.3224 C   0  0  0  0  0  0  0  0  0  0  0  0
   -0.5639    0.4509   32.7751 Cl  0  0  0  0  0  0  0  0  0  0  0  0
   -1.0667   -3.9228   32.7925 N   0  0  0  0  0  0  0  0  0  0  0  0
   -0.5379   -4.2307   33.9708 C   0  0  0  0  0  0  0  0  0  0  0  0
   -0.3771   -5.8535   34.6782 S   0  0  0  0  0  0  0  0  0  0  0  0
    0.3997   -6.3951   33.2144 C   0  0  0  0  0  0  0  0  0  0  0  0
    1.5701   -5.8267   32.8591 C   0  0  0  0  0  0  0  0  0  0  0  0
    1.8518   -5.6595   31.4456 C   0  0  0  0  0  0  0  0  0  0  0  0
    1.0428   -6.1539   30.4939 C   0  0  0  0  0  0  0  0  0  0  0  0
   -0.0550   -6.9599   30.8707 C   0  0  0  0  0  0  0  0  0  0  0  0
   -0.9177   -7.6805   30.1892 N   0  0  0  0  0  0  0  0  0  0  0  0
   -1.7657   -8.2725   31.0942 N   0  0  0  0  0  0  0  0  0  0  0  0
   -1.4123   -7.8837   32.2953 C   0  0  0  0  0  0  0  0  0  0  0  0
   -0.3427   -7.0438   32.2221 N   0  0  0  0  0  0  0  0  0  0  0  0
    1.9500   -3.5787   35.5189 H   0  0  0  0  0  0  0  0  0  0  0  0
    0.4050   -3.4741   36.4335 H   0  0  0  0  0  0  0  0  0  0  0  0
    1.1627   -1.9937   35.7975 H   0  0  0  0  0  0  0  0  0  0  0  0
   -1.0953   -3.6216   30.0500 H   0  0  0  0  0  0  0  0  0  0  0  0
   -1.3726   -2.3142   27.9803 H   0  0  0  0  0  0  0  0  0  0  0  0
   -1.1290    0.1389   27.9960 H   0  0  0  0  0  0  0  0  0  0  0  0
   -0.7287    1.3204   30.1261 H   0  0  0  0  0  0  0  0  0  0  0  0
    2.1771   -5.2334   33.5368 H   0  0  0  0  0  0  0  0  0  0  0  0
    2.6992   -5.0359   31.1707 H   0  0  0  0  0  0  0  0  0  0  0  0
    1.2422   -5.9849   29.4431 H   0  0  0  0  0  0  0  0  0  0  0  0
   -1.8597   -8.2021   33.2241 H   0  0  0  0  0  0  0  0  0  0  0  0
  1  2  1  0
  2  3  1  0
  3  4  2  0
  4  5  1  0
  5  6  2  0
  6  7  1  0
  7  8  2  0
  8  9  1  0
  9 10  2  0
 10 11  1  0
  4 12  1  0
 12 13  2  0
 13 14  1  0
 14 15  1  0
 15 16  2  0
 16 17  1  0
 17 18  2  0
 18 19  1  0
 19 20  2  0
 20 21  1  0
 21 22  2  0
 22 23  1  0
 13  2  1  0
 23 15  1  0
 10  5  1  0
 23 19  1  0
  1 24  1  0
  1 25  1  0
  1 26  1  0
  6 27  1  0
  7 28  1  0
  8 29  1  0
  9 30  1  0
 16 31  1  0
 17 32  1  0
 18 33  1  0
 22 34  1  0
M  END
>  <Energy>  (689) 
83.664825717675967

>  <compound_id>  (689) 
2793

>  <target_id>  (689) 
1

>  <reference_id>  (689) 
190

>  <inspiration_ids>  (689) 
[183, 190]

>  <energy_score>  (689) 
-25.50905140379038

>  <distance_score>  (689) 
2.318452821976302

>  <path>  (689) 
/opt/xchem-fragalysis-2/maxwin/BulkDock/SCRATCH/505736/C2793-P190/C2793-P190.minimised.mol

>  <scratch_subdir>  (689) 
/opt/xchem-fragalysis-2/maxwin/BulkDock/SCRATCH/505736/C2793-P190

>  <fragmenstein_runtime>  (689) 
7.9974446296691895

>  <fragmenstein_outcome>  (689) 
too moved

>  <fragmenstein_mode>  (689) 
expansion

>  <fragmenstein_error>  (689) 


$$$$
C2795-P183
     RDKit          3D

 73 77  0  0  0  0  0  0  0  0999 V2000
    4.0327   -4.0831   35.1617 C   0  0  0  0  0  0  0  0  0  0  0  0
    3.2428   -5.1231   34.4519 C   0  0  0  0  0  0  0  0  0  0  0  0
    2.5769   -6.2305   34.9353 C   0  0  0  0  0  0  0  0  0  0  0  0
    1.8445   -6.4422   36.5528 S   0  0  0  0  0  0  0  0  0  0  0  0
    0.4296   -5.6009   35.9627 C   0  0  0  0  0  0  0  0  0  0  0  0
    0.4742   -4.2550   35.9010 C   0  0  0  0  0  0  0  0  0  0  0  0
   -0.2486   -3.5742   34.8471 C   0  0  0  0  0  0  0  0  0  0  0  0
   -0.9210   -4.2589   33.9144 C   0  0  0  0  0  0  0  0  0  0  0  0
   -1.0776   -5.6527   34.0557 C   0  0  0  0  0  0  0  0  0  0  0  0
   -1.7677   -6.5415   33.3925 N   0  0  0  0  0  0  0  0  0  0  0  0
   -1.6990   -7.7336   34.0661 N   0  0  0  0  0  0  0  0  0  0  0  0
   -0.8634   -7.5708   35.0604 C   0  0  0  0  0  0  0  0  0  0  0  0
   -0.4475   -6.2727   35.1085 N   0  0  0  0  0  0  0  0  0  0  0  0
    2.0614   -6.9382   33.9082 N   0  0  0  0  0  0  0  0  0  0  0  0
    1.9738   -6.0955   32.8857 C   0  0  0  0  0  0  0  0  0  0  0  0
    1.0036   -6.4066   31.8287 C   0  0  0  0  0  0  0  0  0  0  0  0
    0.3054   -7.6143   31.8827 C   0  0  0  0  0  0  0  0  0  0  0  0
   -0.6191   -8.0487   30.9521 C   0  0  0  0  0  0  0  0  0  0  0  0
   -0.9336   -7.1903   29.9412 C   0  0  0  0  0  0  0  0  0  0  0  0
   -0.3526   -5.9323   29.9126 C   0  0  0  0  0  0  0  0  0  0  0  0
    0.5569   -5.5553   30.8701 C   0  0  0  0  0  0  0  0  0  0  0  0
    2.8287   -5.0205   33.1039 N   0  0  0  0  0  0  0  0  0  0  0  0
    3.2753   -3.8947   32.2829 C   0  0  0  0  0  0  0  0  0  0  0  0
    2.9555   -3.7072   30.7866 C   0  0  0  0  0  0  0  0  0  0  0  0
    1.9260   -2.5980   30.4281 C   0  0  0  0  0  0  0  0  0  0  0  0
    0.9270   -2.4166   31.4856 N   0  0  0  0  0  0  0  0  0  0  0  0
   -0.3958   -1.6631   31.2794 S   0  0  0  0  0  0  0  0  0  0  0  0
   -1.5457   -2.7545   30.5005 C   0  0  0  0  0  0  0  0  0  0  0  0
   -1.1232   -1.0201   32.3559 O   0  0  0  0  0  0  0  0  0  0  0  0
    0.0687   -0.3542   30.2511 N   0  0  0  0  0  0  0  0  0  0  0  0
    0.3993    0.8925   30.9383 C   0  0  0  0  0  0  0  0  0  0  0  0
    1.1017    1.9107   30.0598 C   0  0  0  0  0  0  0  0  0  0  0  0
    0.2648    2.2723   28.8568 C   0  0  0  0  0  0  0  0  0  0  0  0
   -0.0713    1.0147   28.0618 C   0  0  0  0  0  0  0  0  0  0  0  0
   -1.0268    1.4143   26.9223 C   0  0  0  0  0  0  0  0  0  0  0  0
   -0.5928   -0.1496   28.9518 C   0  0  0  0  0  0  0  0  0  0  0  0
   -2.0943   -0.0557   29.1178 C   0  0  0  0  0  0  0  0  0  0  0  0
   -2.6774   -1.1304   28.3948 O   0  0  0  0  0  0  0  0  0  0  0  0
    4.2650   -4.3949   36.1849 H   0  0  0  0  0  0  0  0  0  0  0  0
    3.4798   -3.1403   35.2150 H   0  0  0  0  0  0  0  0  0  0  0  0
    4.9845   -3.9032   34.6526 H   0  0  0  0  0  0  0  0  0  0  0  0
    1.2112   -3.6699   36.4427 H   0  0  0  0  0  0  0  0  0  0  0  0
   -0.1745   -2.4918   34.7847 H   0  0  0  0  0  0  0  0  0  0  0  0
   -1.4650   -3.7402   33.1462 H   0  0  0  0  0  0  0  0  0  0  0  0
   -0.5592   -8.3290   35.7683 H   0  0  0  0  0  0  0  0  0  0  0  0
    0.4168   -8.2156   32.7696 H   0  0  0  0  0  0  0  0  0  0  0  0
   -1.0952   -9.0100   31.1000 H   0  0  0  0  0  0  0  0  0  0  0  0
   -1.6743   -7.4368   29.1945 H   0  0  0  0  0  0  0  0  0  0  0  0
   -0.6501   -5.2004   29.1663 H   0  0  0  0  0  0  0  0  0  0  0  0
    0.8061   -4.5327   30.9059 H   0  0  0  0  0  0  0  0  0  0  0  0
    3.0254   -2.9844   32.8402 H   0  0  0  0  0  0  0  0  0  0  0  0
    4.3710   -3.9805   32.3303 H   0  0  0  0  0  0  0  0  0  0  0  0
    3.8893   -3.3736   30.3077 H   0  0  0  0  0  0  0  0  0  0  0  0
    2.7690   -4.6549   30.2768 H   0  0  0  0  0  0  0  0  0  0  0  0
    1.4598   -2.8407   29.4661 H   0  0  0  0  0  0  0  0  0  0  0  0
    2.4717   -1.6560   30.2947 H   0  0  0  0  0  0  0  0  0  0  0  0
   -2.5462   -2.3262   30.5390 H   0  0  0  0  0  0  0  0  0  0  0  0
   -1.5769   -3.6804   31.0670 H   0  0  0  0  0  0  0  0  0  0  0  0
   -1.2243   -2.9637   29.4811 H   0  0  0  0  0  0  0  0  0  0  0  0
   -0.5016    1.3333   31.3724 H   0  0  0  0  0  0  0  0  0  0  0  0
    1.0690    0.6731   31.7796 H   0  0  0  0  0  0  0  0  0  0  0  0
    2.0721    1.5143   29.7346 H   0  0  0  0  0  0  0  0  0  0  0  0
    1.3112    2.8142   30.6443 H   0  0  0  0  0  0  0  0  0  0  0  0
    0.8138    2.9817   28.2259 H   0  0  0  0  0  0  0  0  0  0  0  0
   -0.6488    2.7832   29.1782 H   0  0  0  0  0  0  0  0  0  0  0  0
    0.8633    0.6613   27.6036 H   0  0  0  0  0  0  0  0  0  0  0  0
   -0.4867    2.0275   26.1932 H   0  0  0  0  0  0  0  0  0  0  0  0
   -1.8561    2.0446   27.2604 H   0  0  0  0  0  0  0  0  0  0  0  0
   -1.4481    0.5429   26.4205 H   0  0  0  0  0  0  0  0  0  0  0  0
   -0.3638   -1.0550   28.3720 H   0  0  0  0  0  0  0  0  0  0  0  0
   -2.4886    0.9008   28.7833 H   0  0  0  0  0  0  0  0  0  0  0  0
   -2.4293   -0.1331   30.1558 H   0  0  0  0  0  0  0  0  0  0  0  0
   -2.4207   -1.0885   27.4525 H   0  0  0  0  0  0  0  0  0  0  0  0
  1  2  1  0
  2  3  2  0
  3  4  1  0
  4  5  1  0
  5  6  2  0
  6  7  1  0
  7  8  2  0
  8  9  1  0
  9 10  2  0
 10 11  1  0
 11 12  2  0
 12 13  1  0
  3 14  1  0
 14 15  2  0
 15 16  1  0
 16 17  2  0
 17 18  1  0
 18 19  2  0
 19 20  1  0
 20 21  2  0
 15 22  1  0
 22 23  1  0
 23 24  1  0
 24 25  1  0
 25 26  1  0
 26 27  2  0
 27 28  1  0
 27 29  2  0
 27 30  1  0
 30 31  1  0
 31 32  1  0
 32 33  1  0
 33 34  1  0
 34 35  1  0
 34 36  1  0
 36 37  1  0
 37 38  1  0
 22  2  1  0
 36 30  1  0
 13  5  1  0
 21 16  1  0
 13  9  1  0
  1 39  1  0
  1 40  1  0
  1 41  1  0
  6 42  1  0
  7 43  1  0
  8 44  1  0
 12 45  1  0
 17 46  1  0
 18 47  1  0
 19 48  1  0
 20 49  1  0
 21 50  1  0
 23 51  1  0
 23 52  1  0
 24 53  1  0
 24 54  1  0
 25 55  1  0
 25 56  1  0
 28 57  1  0
 28 58  1  0
 28 59  1  0
 31 60  1  0
 31 61  1  0
 32 62  1  0
 32 63  1  0
 33 64  1  0
 33 65  1  0
 34 66  1  0
 35 67  1  0
 35 68  1  0
 35 69  1  0
 36 70  1  0
 37 71  1  0
 37 72  1  0
 38 73  1  0
M  END
>  <Energy>  (690) 
60.454395928022016

>  <compound_id>  (690) 
2795

>  <target_id>  (690) 
1

>  <reference_id>  (690) 
183

>  <inspiration_ids>  (690) 
[183, 195]

>  <energy_score>  (690) 
-11.411595542538123

>  <distance_score>  (690) 
2.639436025250638

>  <path>  (690) 
/opt/xchem-fragalysis-2/maxwin/BulkDock/SCRATCH/505736/C2795-P183/C2795-P183.minimised.mol

>  <scratch_subdir>  (690) 
/opt/xchem-fragalysis-2/maxwin/BulkDock/SCRATCH/505736/C2795-P183

>  <fragmenstein_runtime>  (690) 
6.789002895355225

>  <fragmenstein_outcome>  (690) 
too moved

>  <fragmenstein_mode>  (690) 
expansion

>  <fragmenstein_error>  (690) 


$$$$
C2795-P195
     RDKit          3D

 73 77  0  0  0  0  0  0  0  0999 V2000
    4.1135   -4.3632   35.8150 C   0  0  0  0  0  0  0  0  0  0  0  0
    3.3578   -5.3309   34.9759 C   0  0  0  0  0  0  0  0  0  0  0  0
    2.6273   -6.4472   35.3307 C   0  0  0  0  0  0  0  0  0  0  0  0
    1.6778   -6.6451   36.8307 S   0  0  0  0  0  0  0  0  0  0  0  0
    0.3878   -5.7158   36.1087 C   0  0  0  0  0  0  0  0  0  0  0  0
    0.4887   -4.3729   36.0651 C   0  0  0  0  0  0  0  0  0  0  0  0
   -0.1985   -3.6427   35.0204 C   0  0  0  0  0  0  0  0  0  0  0  0
   -0.8927   -4.2801   34.0704 C   0  0  0  0  0  0  0  0  0  0  0  0
   -1.1039   -5.6667   34.1878 C   0  0  0  0  0  0  0  0  0  0  0  0
   -1.8553   -6.5053   33.5263 N   0  0  0  0  0  0  0  0  0  0  0  0
   -1.8640   -7.6984   34.2000 N   0  0  0  0  0  0  0  0  0  0  0  0
   -1.0017   -7.5998   35.1819 C   0  0  0  0  0  0  0  0  0  0  0  0
   -0.5021   -6.3325   35.2319 N   0  0  0  0  0  0  0  0  0  0  0  0
    2.2411   -7.1128   34.2199 N   0  0  0  0  0  0  0  0  0  0  0  0
    2.2824   -6.2275   33.2340 C   0  0  0  0  0  0  0  0  0  0  0  0
    1.4805   -6.4943   32.0452 C   0  0  0  0  0  0  0  0  0  0  0  0
    0.4167   -7.4012   32.1715 C   0  0  0  0  0  0  0  0  0  0  0  0
   -0.5109   -7.6423   31.1886 C   0  0  0  0  0  0  0  0  0  0  0  0
   -0.3842   -6.9230   30.0389 C   0  0  0  0  0  0  0  0  0  0  0  0
    0.7352   -6.1132   29.8281 C   0  0  0  0  0  0  0  0  0  0  0  0
    1.7177   -6.0008   30.7883 C   0  0  0  0  0  0  0  0  0  0  0  0
    2.9632   -5.0882   33.6409 N   0  0  0  0  0  0  0  0  0  0  0  0
    3.0207   -3.7250   33.1189 C   0  0  0  0  0  0  0  0  0  0  0  0
    2.7313   -3.2886   31.6767 C   0  0  0  0  0  0  0  0  0  0  0  0
    1.2689   -3.1787   31.2689 C   0  0  0  0  0  0  0  0  0  0  0  0
    0.6472   -2.0836   31.9780 N   0  0  0  0  0  0  0  0  0  0  0  0
   -0.6731   -1.5016   31.4636 S   0  0  0  0  0  0  0  0  0  0  0  0
   -1.5852   -2.7568   30.6064 C   0  0  0  0  0  0  0  0  0  0  0  0
   -1.6111   -0.7905   32.3058 O   0  0  0  0  0  0  0  0  0  0  0  0
   -0.0446   -0.2925   30.4086 N   0  0  0  0  0  0  0  0  0  0  0  0
    0.3897    0.9339   31.0672 C   0  0  0  0  0  0  0  0  0  0  0  0
    1.2027    1.8716   30.1994 C   0  0  0  0  0  0  0  0  0  0  0  0
    0.4294    2.2702   28.9704 C   0  0  0  0  0  0  0  0  0  0  0  0
    0.0810    1.0251   28.1643 C   0  0  0  0  0  0  0  0  0  0  0  0
   -0.7953    1.4701   26.9811 C   0  0  0  0  0  0  0  0  0  0  0  0
   -0.5115   -0.1343   29.0245 C   0  0  0  0  0  0  0  0  0  0  0  0
   -2.0206   -0.1354   28.9534 C   0  0  0  0  0  0  0  0  0  0  0  0
   -2.4273   -1.2678   28.1966 O   0  0  0  0  0  0  0  0  0  0  0  0
    3.5527   -3.4354   35.9598 H   0  0  0  0  0  0  0  0  0  0  0  0
    5.0739   -4.1216   35.3488 H   0  0  0  0  0  0  0  0  0  0  0  0
    4.3276   -4.7857   36.8020 H   0  0  0  0  0  0  0  0  0  0  0  0
    1.2126   -3.8214   36.6565 H   0  0  0  0  0  0  0  0  0  0  0  0
   -0.0909   -2.5612   34.9870 H   0  0  0  0  0  0  0  0  0  0  0  0
   -1.4214   -3.7236   33.3159 H   0  0  0  0  0  0  0  0  0  0  0  0
   -0.7335   -8.3828   35.8788 H   0  0  0  0  0  0  0  0  0  0  0  0
    0.2956   -7.9495   33.0951 H   0  0  0  0  0  0  0  0  0  0  0  0
   -1.3390   -8.3136   31.3884 H   0  0  0  0  0  0  0  0  0  0  0  0
   -1.1670   -7.0405   29.3034 H   0  0  0  0  0  0  0  0  0  0  0  0
    0.8748   -5.5396   28.9209 H   0  0  0  0  0  0  0  0  0  0  0  0
    2.6433   -5.5210   30.5249 H   0  0  0  0  0  0  0  0  0  0  0  0
    2.4144   -3.1181   33.8012 H   0  0  0  0  0  0  0  0  0  0  0  0
    4.0640   -3.4260   33.2929 H   0  0  0  0  0  0  0  0  0  0  0  0
    3.1560   -2.2761   31.5815 H   0  0  0  0  0  0  0  0  0  0  0  0
    3.3374   -3.8625   30.9762 H   0  0  0  0  0  0  0  0  0  0  0  0
    0.6900   -4.0544   31.5331 H   0  0  0  0  0  0  0  0  0  0  0  0
    1.2271   -3.0194   30.1856 H   0  0  0  0  0  0  0  0  0  0  0  0
   -2.6121   -2.4229   30.5008 H   0  0  0  0  0  0  0  0  0  0  0  0
   -1.5929   -3.6699   31.1995 H   0  0  0  0  0  0  0  0  0  0  0  0
   -1.1237   -2.9700   29.6422 H   0  0  0  0  0  0  0  0  0  0  0  0
   -0.4736    1.4647   31.4718 H   0  0  0  0  0  0  0  0  0  0  0  0
    1.0133    0.6814   31.9341 H   0  0  0  0  0  0  0  0  0  0  0  0
    2.1487    1.3942   29.9142 H   0  0  0  0  0  0  0  0  0  0  0  0
    1.4631    2.7674   30.7752 H   0  0  0  0  0  0  0  0  0  0  0  0
    1.0313    2.9567   28.3625 H   0  0  0  0  0  0  0  0  0  0  0  0
   -0.4757    2.8165   29.2569 H   0  0  0  0  0  0  0  0  0  0  0  0
    1.0230    0.6418   27.7448 H   0  0  0  0  0  0  0  0  0  0  0  0
   -0.1871    2.0353   26.2672 H   0  0  0  0  0  0  0  0  0  0  0  0
   -1.5945    2.1562   27.2838 H   0  0  0  0  0  0  0  0  0  0  0  0
   -1.2506    0.6215   26.4728 H   0  0  0  0  0  0  0  0  0  0  0  0
   -0.1572   -1.0434   28.5166 H   0  0  0  0  0  0  0  0  0  0  0  0
   -2.4190    0.7780   28.5216 H   0  0  0  0  0  0  0  0  0  0  0  0
   -2.4987   -0.1977   29.9331 H   0  0  0  0  0  0  0  0  0  0  0  0
   -2.1340   -1.1834   27.2670 H   0  0  0  0  0  0  0  0  0  0  0  0
  1  2  1  0
  2  3  2  0
  3  4  1  0
  4  5  1  0
  5  6  2  0
  6  7  1  0
  7  8  2  0
  8  9  1  0
  9 10  2  0
 10 11  1  0
 11 12  2  0
 12 13  1  0
  3 14  1  0
 14 15  2  0
 15 16  1  0
 16 17  2  0
 17 18  1  0
 18 19  2  0
 19 20  1  0
 20 21  2  0
 15 22  1  0
 22 23  1  0
 23 24  1  0
 24 25  1  0
 25 26  1  0
 26 27  2  0
 27 28  1  0
 27 29  2  0
 27 30  1  0
 30 31  1  0
 31 32  1  0
 32 33  1  0
 33 34  1  0
 34 35  1  0
 34 36  1  0
 36 37  1  0
 37 38  1  0
 22  2  1  0
 36 30  1  0
 13  5  1  0
 21 16  1  0
 13  9  1  0
  1 39  1  0
  1 40  1  0
  1 41  1  0
  6 42  1  0
  7 43  1  0
  8 44  1  0
 12 45  1  0
 17 46  1  0
 18 47  1  0
 19 48  1  0
 20 49  1  0
 21 50  1  0
 23 51  1  0
 23 52  1  0
 24 53  1  0
 24 54  1  0
 25 55  1  0
 25 56  1  0
 28 57  1  0
 28 58  1  0
 28 59  1  0
 31 60  1  0
 31 61  1  0
 32 62  1  0
 32 63  1  0
 33 64  1  0
 33 65  1  0
 34 66  1  0
 35 67  1  0
 35 68  1  0
 35 69  1  0
 36 70  1  0
 37 71  1  0
 37 72  1  0
 38 73  1  0
M  END
>  <Energy>  (691) 
56.191258302610024

>  <compound_id>  (691) 
2795

>  <target_id>  (691) 
1

>  <reference_id>  (691) 
195

>  <inspiration_ids>  (691) 
[183, 195]

>  <energy_score>  (691) 
-15.6747331679465

>  <distance_score>  (691) 
2.719939143451169

>  <path>  (691) 
/opt/xchem-fragalysis-2/maxwin/BulkDock/SCRATCH/505736/C2795-P195/C2795-P195.minimised.mol

>  <scratch_subdir>  (691) 
/opt/xchem-fragalysis-2/maxwin/BulkDock/SCRATCH/505736/C2795-P195

>  <fragmenstein_runtime>  (691) 
6.328039646148682

>  <fragmenstein_outcome>  (691) 
too moved

>  <fragmenstein_mode>  (691) 
expansion

>  <fragmenstein_error>  (691) 


$$$$
C2798-P183
     RDKit          3D

 62 66  0  0  0  0  0  0  0  0999 V2000
    3.0782   -4.8324   27.5855 C   0  0  0  0  0  0  0  0  0  0  0  0
    4.0338   -4.5753   28.7201 C   0  0  0  0  0  0  0  0  0  0  0  0
    4.9381   -5.2717   28.9604 O   0  0  0  0  0  0  0  0  0  0  0  0
    3.5648   -3.2662   29.4046 N   0  0  0  0  0  0  0  0  0  0  0  0
    4.1655   -2.4987   30.4608 C   0  0  0  0  0  0  0  0  0  0  0  0
    4.4602   -3.3188   31.7119 C   0  0  0  0  0  0  0  0  0  0  0  0
    3.2993   -3.4187   32.7148 C   0  0  0  0  0  0  0  0  0  0  0  0
    3.7343   -4.1891   33.9463 C   0  0  0  0  0  0  0  0  0  0  0  0
    3.1285   -5.5036   33.7923 N   0  0  0  0  0  0  0  0  0  0  0  0
    1.7693   -5.2480   33.2975 C   0  0  0  0  0  0  0  0  0  0  0  0
    0.9219   -4.7435   34.4792 C   0  0  0  0  0  0  0  0  0  0  0  0
   -0.4859   -5.2954   34.5205 C   0  0  0  0  0  0  0  0  0  0  0  0
   -1.0028   -5.6152   33.1335 C   0  0  0  0  0  0  0  0  0  0  0  0
   -1.1343   -4.4295   32.2205 C   0  0  0  0  0  0  0  0  0  0  0  0
   -0.5491   -4.3684   30.9834 N   0  0  0  0  0  0  0  0  0  0  0  0
   -0.9669   -3.2252   30.4904 C   0  0  0  0  0  0  0  0  0  0  0  0
   -0.5760   -2.6885   28.9040 S   0  0  0  0  0  0  0  0  0  0  0  0
   -0.4212   -0.9863   29.1123 C   0  0  0  0  0  0  0  0  0  0  0  0
    0.3555   -0.4675   30.0861 C   0  0  0  0  0  0  0  0  0  0  0  0
    0.4982    0.9716   30.2038 C   0  0  0  0  0  0  0  0  0  0  0  0
   -0.0619    1.8067   29.3117 C   0  0  0  0  0  0  0  0  0  0  0  0
   -0.8522    1.2794   28.2633 C   0  0  0  0  0  0  0  0  0  0  0  0
   -1.4723    1.8566   27.2622 N   0  0  0  0  0  0  0  0  0  0  0  0
   -2.1357    0.8809   26.5782 N   0  0  0  0  0  0  0  0  0  0  0  0
   -1.9172   -0.2636   27.1888 C   0  0  0  0  0  0  0  0  0  0  0  0
   -1.0408   -0.0949   28.2187 N   0  0  0  0  0  0  0  0  0  0  0  0
   -1.8321   -2.6457   31.3745 N   0  0  0  0  0  0  0  0  0  0  0  0
   -2.6357   -1.4561   31.2916 C   0  0  0  0  0  0  0  0  0  0  0  0
   -1.9567   -3.4090   32.4722 N   0  0  0  0  0  0  0  0  0  0  0  0
   -0.1946   -6.7307   32.5121 C   0  0  0  0  0  0  0  0  0  0  0  0
    1.2839   -6.5722   32.7466 C   0  0  0  0  0  0  0  0  0  0  0  0
    2.0663   -4.1708   32.2322 C   0  0  0  0  0  0  0  0  0  0  0  0
    2.0495   -4.6817   27.9168 H   0  0  0  0  0  0  0  0  0  0  0  0
    3.1861   -5.8675   27.2488 H   0  0  0  0  0  0  0  0  0  0  0  0
    3.3140   -4.1610   26.7569 H   0  0  0  0  0  0  0  0  0  0  0  0
    2.6894   -2.9618   28.9908 H   0  0  0  0  0  0  0  0  0  0  0  0
    3.5221   -1.6406   30.6762 H   0  0  0  0  0  0  0  0  0  0  0  0
    5.1107   -2.1230   30.0543 H   0  0  0  0  0  0  0  0  0  0  0  0
    4.8229   -4.3187   31.4493 H   0  0  0  0  0  0  0  0  0  0  0  0
    5.2914   -2.8214   32.2304 H   0  0  0  0  0  0  0  0  0  0  0  0
    3.0175   -2.4003   33.0137 H   0  0  0  0  0  0  0  0  0  0  0  0
    4.8216   -4.2731   34.0487 H   0  0  0  0  0  0  0  0  0  0  0  0
    3.3751   -3.7020   34.8606 H   0  0  0  0  0  0  0  0  0  0  0  0
    3.6593   -5.9766   33.0687 H   0  0  0  0  0  0  0  0  0  0  0  0
    1.3870   -4.9974   35.4424 H   0  0  0  0  0  0  0  0  0  0  0  0
    0.8748   -3.6460   34.4680 H   0  0  0  0  0  0  0  0  0  0  0  0
   -0.4982   -6.2095   35.1296 H   0  0  0  0  0  0  0  0  0  0  0  0
   -1.1285   -4.5780   35.0418 H   0  0  0  0  0  0  0  0  0  0  0  0
   -1.9834   -6.0469   33.2718 H   0  0  0  0  0  0  0  0  0  0  0  0
    0.9101   -1.0778   30.7935 H   0  0  0  0  0  0  0  0  0  0  0  0
    1.1070    1.3629   31.0147 H   0  0  0  0  0  0  0  0  0  0  0  0
    0.0625    2.8838   29.3748 H   0  0  0  0  0  0  0  0  0  0  0  0
   -2.3537   -1.2131   26.9146 H   0  0  0  0  0  0  0  0  0  0  0  0
   -2.8657   -1.2314   30.2527 H   0  0  0  0  0  0  0  0  0  0  0  0
   -2.0880   -0.6339   31.7573 H   0  0  0  0  0  0  0  0  0  0  0  0
   -3.5715   -1.6230   31.8325 H   0  0  0  0  0  0  0  0  0  0  0  0
   -0.4040   -6.8389   31.4401 H   0  0  0  0  0  0  0  0  0  0  0  0
   -0.5096   -7.6884   32.9505 H   0  0  0  0  0  0  0  0  0  0  0  0
    1.5613   -7.3568   33.4607 H   0  0  0  0  0  0  0  0  0  0  0  0
    1.7902   -6.7786   31.8065 H   0  0  0  0  0  0  0  0  0  0  0  0
    2.2314   -4.6218   31.2492 H   0  0  0  0  0  0  0  0  0  0  0  0
    1.2710   -3.4323   32.1469 H   0  0  0  0  0  0  0  0  0  0  0  0
  1  2  1  0
  2  3  2  0
  2  4  1  0
  4  5  1  0
  5  6  1  0
  6  7  1  0
  7  8  1  0
  8  9  1  0
  9 10  1  0
 10 11  1  0
 11 12  1  0
 12 13  1  0
 13 14  1  0
 14 15  1  0
 15 16  2  0
 16 17  1  0
 17 18  1  0
 18 19  2  0
 19 20  1  0
 20 21  2  0
 21 22  1  0
 22 23  2  0
 23 24  1  0
 24 25  2  0
 25 26  1  0
 16 27  1  0
 27 28  1  0
 27 29  1  0
 13 30  1  0
 30 31  1  0
 10 32  1  0
 32  7  1  0
 31 10  1  0
 29 14  2  0
 26 18  1  0
 26 22  1  0
  1 33  1  0
  1 34  1  0
  1 35  1  0
  4 36  1  0
  5 37  1  0
  5 38  1  0
  6 39  1  0
  6 40  1  0
  7 41  1  0
  8 42  1  0
  8 43  1  0
  9 44  1  0
 11 45  1  0
 11 46  1  0
 12 47  1  0
 12 48  1  0
 13 49  1  0
 19 50  1  0
 20 51  1  0
 21 52  1  0
 25 53  1  0
 28 54  1  0
 28 55  1  0
 28 56  1  0
 30 57  1  0
 30 58  1  0
 31 59  1  0
 31 60  1  0
 32 61  1  0
 32 62  1  0
M  END
>  <Energy>  (692) 
74.756349887523839

>  <compound_id>  (692) 
2798

>  <target_id>  (692) 
1

>  <reference_id>  (692) 
183

>  <inspiration_ids>  (692) 
[183, 198]

>  <energy_score>  (692) 
-26.68057051739555

>  <distance_score>  (692) 
3.883231803937837

>  <path>  (692) 
/opt/xchem-fragalysis-2/maxwin/BulkDock/SCRATCH/505736/C2798-P183/C2798-P183.minimised.mol

>  <scratch_subdir>  (692) 
/opt/xchem-fragalysis-2/maxwin/BulkDock/SCRATCH/505736/C2798-P183

>  <fragmenstein_runtime>  (692) 
10.717329502105713

>  <fragmenstein_outcome>  (692) 
too moved

>  <fragmenstein_mode>  (692) 
expansion

>  <fragmenstein_error>  (692) 


$$$$
C2798-P198
     RDKit          3D

 62 66  0  0  0  0  0  0  0  0999 V2000
   -1.3407   -0.6146   32.9851 C   0  0  0  0  0  0  0  0  0  0  0  0
   -2.1681   -1.5974   32.1859 C   0  0  0  0  0  0  0  0  0  0  0  0
   -3.3347   -1.5686   32.2032 O   0  0  0  0  0  0  0  0  0  0  0  0
   -1.1970   -2.5550   31.4458 N   0  0  0  0  0  0  0  0  0  0  0  0
   -1.4602   -3.5994   30.5129 C   0  0  0  0  0  0  0  0  0  0  0  0
   -0.3739   -4.3790   29.7595 C   0  0  0  0  0  0  0  0  0  0  0  0
    0.2931   -5.6127   30.4028 C   0  0  0  0  0  0  0  0  0  0  0  0
   -0.5582   -6.7735   30.8760 C   0  0  0  0  0  0  0  0  0  0  0  0
    0.1400   -7.2784   32.0667 N   0  0  0  0  0  0  0  0  0  0  0  0
    0.6020   -6.0755   32.7819 C   0  0  0  0  0  0  0  0  0  0  0  0
   -0.5432   -5.4596   33.5875 C   0  0  0  0  0  0  0  0  0  0  0  0
   -0.1823   -4.1622   34.3265 C   0  0  0  0  0  0  0  0  0  0  0  0
    1.3144   -3.8349   34.4844 C   0  0  0  0  0  0  0  0  0  0  0  0
    1.9549   -2.9403   33.4029 C   0  0  0  0  0  0  0  0  0  0  0  0
    1.2495   -2.2481   32.4167 N   0  0  0  0  0  0  0  0  0  0  0  0
    2.1662   -1.9292   31.5225 C   0  0  0  0  0  0  0  0  0  0  0  0
    1.9296   -1.6160   29.8180 S   0  0  0  0  0  0  0  0  0  0  0  0
    0.7794   -0.3115   29.7306 C   0  0  0  0  0  0  0  0  0  0  0  0
    1.0550    0.8451   30.3650 C   0  0  0  0  0  0  0  0  0  0  0  0
    0.3055    2.0462   30.0516 C   0  0  0  0  0  0  0  0  0  0  0  0
   -0.6510    2.0561   29.1088 C   0  0  0  0  0  0  0  0  0  0  0  0
   -1.0237    0.8456   28.4928 C   0  0  0  0  0  0  0  0  0  0  0  0
   -1.9573    0.5757   27.6157 N   0  0  0  0  0  0  0  0  0  0  0  0
   -1.9188   -0.7703   27.3967 N   0  0  0  0  0  0  0  0  0  0  0  0
   -0.8988   -1.2643   28.0602 C   0  0  0  0  0  0  0  0  0  0  0  0
   -0.3048   -0.3019   28.8172 N   0  0  0  0  0  0  0  0  0  0  0  0
    3.3961   -2.2190   32.0509 N   0  0  0  0  0  0  0  0  0  0  0  0
    4.6994   -2.0129   31.4723 C   0  0  0  0  0  0  0  0  0  0  0  0
    3.2834   -2.8829   33.2245 N   0  0  0  0  0  0  0  0  0  0  0  0
    2.0587   -5.1588   34.7374 C   0  0  0  0  0  0  0  0  0  0  0  0
    1.7590   -6.3146   33.7612 C   0  0  0  0  0  0  0  0  0  0  0  0
    1.0807   -5.2262   31.6189 C   0  0  0  0  0  0  0  0  0  0  0  0
   -1.9733    0.2321   33.2705 H   0  0  0  0  0  0  0  0  0  0  0  0
   -0.9651   -1.0888   33.8934 H   0  0  0  0  0  0  0  0  0  0  0  0
   -0.5151   -0.2196   32.3968 H   0  0  0  0  0  0  0  0  0  0  0  0
   -0.2395   -2.2432   31.5863 H   0  0  0  0  0  0  0  0  0  0  0  0
   -2.1308   -3.1424   29.7810 H   0  0  0  0  0  0  0  0  0  0  0  0
   -2.0328   -4.2921   31.1057 H   0  0  0  0  0  0  0  0  0  0  0  0
   -0.8409   -4.7230   28.8350 H   0  0  0  0  0  0  0  0  0  0  0  0
    0.4128   -3.7090   29.4301 H   0  0  0  0  0  0  0  0  0  0  0  0
    1.0083   -6.0046   29.6660 H   0  0  0  0  0  0  0  0  0  0  0  0
   -1.5654   -6.4951   31.1709 H   0  0  0  0  0  0  0  0  0  0  0  0
   -0.6438   -7.5569   30.1170 H   0  0  0  0  0  0  0  0  0  0  0  0
    0.9591   -7.7933   31.7493 H   0  0  0  0  0  0  0  0  0  0  0  0
   -0.8862   -6.1926   34.3324 H   0  0  0  0  0  0  0  0  0  0  0  0
   -1.4166   -5.2589   32.9673 H   0  0  0  0  0  0  0  0  0  0  0  0
   -0.6173   -4.2410   35.3331 H   0  0  0  0  0  0  0  0  0  0  0  0
   -0.7072   -3.3244   33.8703 H   0  0  0  0  0  0  0  0  0  0  0  0
    1.4104   -3.2287   35.3976 H   0  0  0  0  0  0  0  0  0  0  0  0
    1.9073    0.9696   31.0267 H   0  0  0  0  0  0  0  0  0  0  0  0
    0.5891    2.9724   30.5455 H   0  0  0  0  0  0  0  0  0  0  0  0
   -1.1793    2.9639   28.8298 H   0  0  0  0  0  0  0  0  0  0  0  0
   -0.5807   -2.2888   28.0212 H   0  0  0  0  0  0  0  0  0  0  0  0
    4.7223   -1.0384   30.9788 H   0  0  0  0  0  0  0  0  0  0  0  0
    4.8896   -2.8163   30.7566 H   0  0  0  0  0  0  0  0  0  0  0  0
    5.4510   -2.0313   32.2661 H   0  0  0  0  0  0  0  0  0  0  0  0
    3.1430   -5.0030   34.7925 H   0  0  0  0  0  0  0  0  0  0  0  0
    1.7739   -5.5067   35.7409 H   0  0  0  0  0  0  0  0  0  0  0  0
    2.6784   -6.5331   33.2143 H   0  0  0  0  0  0  0  0  0  0  0  0
    1.5536   -7.2127   34.3601 H   0  0  0  0  0  0  0  0  0  0  0  0
    2.1530   -5.3268   31.4156 H   0  0  0  0  0  0  0  0  0  0  0  0
    0.8535   -4.2046   31.7966 H   0  0  0  0  0  0  0  0  0  0  0  0
  1  2  1  0
  2  3  2  0
  2  4  1  0
  4  5  1  0
  5  6  1  0
  6  7  1  0
  7  8  1  0
  8  9  1  0
  9 10  1  0
 10 11  1  0
 11 12  1  0
 12 13  1  0
 13 14  1  0
 14 15  1  0
 15 16  2  0
 16 17  1  0
 17 18  1  0
 18 19  2  0
 19 20  1  0
 20 21  2  0
 21 22  1  0
 22 23  2  0
 23 24  1  0
 24 25  2  0
 25 26  1  0
 16 27  1  0
 27 28  1  0
 27 29  1  0
 13 30  1  0
 30 31  1  0
 10 32  1  0
 32  7  1  0
 31 10  1  0
 29 14  2  0
 26 18  1  0
 26 22  1  0
  1 33  1  0
  1 34  1  0
  1 35  1  0
  4 36  1  0
  5 37  1  0
  5 38  1  0
  6 39  1  0
  6 40  1  0
  7 41  1  0
  8 42  1  0
  8 43  1  0
  9 44  1  0
 11 45  1  0
 11 46  1  0
 12 47  1  0
 12 48  1  0
 13 49  1  0
 19 50  1  0
 20 51  1  0
 21 52  1  0
 25 53  1  0
 28 54  1  0
 28 55  1  0
 28 56  1  0
 30 57  1  0
 30 58  1  0
 31 59  1  0
 31 60  1  0
 32 61  1  0
 32 62  1  0
M  END
>  <Energy>  (693) 
94.982089789975646

>  <compound_id>  (693) 
2798

>  <target_id>  (693) 
1

>  <reference_id>  (693) 
198

>  <inspiration_ids>  (693) 
[183, 198]

>  <energy_score>  (693) 
-6.454830614945195

>  <distance_score>  (693) 
2.7899595326618436

>  <path>  (693) 
/opt/xchem-fragalysis-2/maxwin/BulkDock/SCRATCH/505736/C2798-P198/C2798-P198.minimised.mol

>  <scratch_subdir>  (693) 
/opt/xchem-fragalysis-2/maxwin/BulkDock/SCRATCH/505736/C2798-P198

>  <fragmenstein_runtime>  (693) 
10.898102283477783

>  <fragmenstein_outcome>  (693) 
too moved

>  <fragmenstein_mode>  (693) 
expansion

>  <fragmenstein_error>  (693) 


$$$$
C2802-P183
     RDKit          3D

 47 50  0  0  0  0  0  0  0  0999 V2000
    1.3894   -3.1444   37.4356 C   0  0  0  0  0  0  0  0  0  0  0  0
    1.2965   -3.0190   36.0056 N   0  0  0  0  0  0  0  0  0  0  0  0
    1.6093   -1.8336   35.3945 N   0  0  0  0  0  0  0  0  0  0  0  0
    1.3761   -2.1031   34.0978 C   0  0  0  0  0  0  0  0  0  0  0  0
    1.3838   -1.1715   32.9430 C   0  0  0  0  0  0  0  0  0  0  0  0
    1.1733    0.2010   33.0677 C   0  0  0  0  0  0  0  0  0  0  0  0
    0.8029    0.9788   31.9524 C   0  0  0  0  0  0  0  0  0  0  0  0
    0.5037    0.3731   30.7334 C   0  0  0  0  0  0  0  0  0  0  0  0
    0.6636   -1.0073   30.6084 C   0  0  0  0  0  0  0  0  0  0  0  0
   -0.1821   -1.7470   29.5907 C   0  0  0  0  0  0  0  0  0  0  0  0
    0.3023   -3.0648   29.3278 O   0  0  0  0  0  0  0  0  0  0  0  0
   -1.6484   -1.7916   30.0197 C   0  0  0  0  0  0  0  0  0  0  0  0
   -2.0102   -2.4106   31.6637 S   0  0  0  0  0  0  0  0  0  0  0  0
   -1.0821   -3.8813   31.8714 C   0  0  0  0  0  0  0  0  0  0  0  0
   -1.6278   -1.4535   32.6791 O   0  0  0  0  0  0  0  0  0  0  0  0
   -3.3858   -2.8775   31.6443 O   0  0  0  0  0  0  0  0  0  0  0  0
    1.3125   -1.7066   31.6456 C   0  0  0  0  0  0  0  0  0  0  0  0
    0.9599   -3.4063   33.9075 N   0  0  0  0  0  0  0  0  0  0  0  0
    0.9389   -3.9700   35.0937 C   0  0  0  0  0  0  0  0  0  0  0  0
    0.5930   -5.6828   35.3770 S   0  0  0  0  0  0  0  0  0  0  0  0
    0.8036   -6.1989   33.7012 C   0  0  0  0  0  0  0  0  0  0  0  0
    1.8829   -5.7791   33.0085 C   0  0  0  0  0  0  0  0  0  0  0  0
    1.8413   -5.7618   31.5607 C   0  0  0  0  0  0  0  0  0  0  0  0
    0.8538   -6.3445   30.8712 C   0  0  0  0  0  0  0  0  0  0  0  0
   -0.1561   -7.0257   31.5753 C   0  0  0  0  0  0  0  0  0  0  0  0
   -1.1718   -7.7470   31.1641 N   0  0  0  0  0  0  0  0  0  0  0  0
   -1.8478   -8.1583   32.2775 N   0  0  0  0  0  0  0  0  0  0  0  0
   -1.2551   -7.6437   33.3347 C   0  0  0  0  0  0  0  0  0  0  0  0
   -0.1706   -6.9064   32.9649 N   0  0  0  0  0  0  0  0  0  0  0  0
    2.2486   -3.7770   37.6711 H   0  0  0  0  0  0  0  0  0  0  0  0
    1.5223   -2.1546   37.8799 H   0  0  0  0  0  0  0  0  0  0  0  0
    0.4660   -3.5913   37.8117 H   0  0  0  0  0  0  0  0  0  0  0  0
    1.2296    0.6700   34.0480 H   0  0  0  0  0  0  0  0  0  0  0  0
    0.6395    2.0471   32.0795 H   0  0  0  0  0  0  0  0  0  0  0  0
    0.0510    0.9666   29.9420 H   0  0  0  0  0  0  0  0  0  0  0  0
   -0.1062   -1.2063   28.6385 H   0  0  0  0  0  0  0  0  0  0  0  0
   -0.1091   -3.3343   28.4840 H   0  0  0  0  0  0  0  0  0  0  0  0
   -2.0975   -0.7922   29.9819 H   0  0  0  0  0  0  0  0  0  0  0  0
   -2.2066   -2.4352   29.3333 H   0  0  0  0  0  0  0  0  0  0  0  0
   -0.0315   -3.7213   31.7987 H   0  0  0  0  0  0  0  0  0  0  0  0
   -1.3379   -4.2925   32.8478 H   0  0  0  0  0  0  0  0  0  0  0  0
   -1.3708   -4.5732   31.0935 H   0  0  0  0  0  0  0  0  0  0  0  0
    1.5641   -2.7511   31.4982 H   0  0  0  0  0  0  0  0  0  0  0  0
    2.7044   -5.2307   33.4631 H   0  0  0  0  0  0  0  0  0  0  0  0
    2.6007   -5.1831   31.0409 H   0  0  0  0  0  0  0  0  0  0  0  0
    0.8108   -6.2890   29.7935 H   0  0  0  0  0  0  0  0  0  0  0  0
   -1.5432   -7.8072   34.3632 H   0  0  0  0  0  0  0  0  0  0  0  0
  1  2  1  0
  2  3  1  0
  3  4  2  0
  4  5  1  0
  5  6  2  0
  6  7  1  0
  7  8  2  0
  8  9  1  0
  9 10  1  0
 10 11  1  0
 10 12  1  0
 12 13  1  0
 13 14  1  0
 13 15  2  0
 13 16  2  0
  9 17  2  0
  4 18  1  0
 18 19  2  0
 19 20  1  0
 20 21  1  0
 21 22  2  0
 22 23  1  0
 23 24  2  0
 24 25  1  0
 25 26  2  0
 26 27  1  0
 27 28  2  0
 28 29  1  0
 19  2  1  0
 29 21  1  0
 17  5  1  0
 29 25  1  0
  1 30  1  0
  1 31  1  0
  1 32  1  0
  6 33  1  0
  7 34  1  0
  8 35  1  0
 10 36  1  0
 11 37  1  0
 12 38  1  0
 12 39  1  0
 14 40  1  0
 14 41  1  0
 14 42  1  0
 17 43  1  0
 22 44  1  0
 23 45  1  0
 24 46  1  0
 28 47  1  0
M  END
>  <Energy>  (694) 
96.208367386461745

>  <compound_id>  (694) 
2802

>  <target_id>  (694) 
1

>  <reference_id>  (694) 
183

>  <inspiration_ids>  (694) 
[183, 202]

>  <energy_score>  (694) 
-19.237250769598063

>  <distance_score>  (694) 
2.4621612590147577

>  <path>  (694) 
/opt/xchem-fragalysis-2/maxwin/BulkDock/SCRATCH/505736/C2802-P183/C2802-P183.minimised.mol

>  <scratch_subdir>  (694) 
/opt/xchem-fragalysis-2/maxwin/BulkDock/SCRATCH/505736/C2802-P183

>  <fragmenstein_runtime>  (694) 
10.02520203590393

>  <fragmenstein_outcome>  (694) 
too moved

>  <fragmenstein_mode>  (694) 
expansion

>  <fragmenstein_error>  (694) 


$$$$
C2802-P202
     RDKit          3D

 47 50  0  0  0  0  0  0  0  0999 V2000
    1.3445   -3.2003   37.4679 C   0  0  0  0  0  0  0  0  0  0  0  0
    1.2819   -3.0744   36.0361 N   0  0  0  0  0  0  0  0  0  0  0  0
    1.6003   -1.8877   35.4329 N   0  0  0  0  0  0  0  0  0  0  0  0
    1.3975   -2.1591   34.1319 C   0  0  0  0  0  0  0  0  0  0  0  0
    1.4249   -1.2278   32.9798 C   0  0  0  0  0  0  0  0  0  0  0  0
    1.1925    0.1425   33.0978 C   0  0  0  0  0  0  0  0  0  0  0  0
    0.8370    0.9140   31.9737 C   0  0  0  0  0  0  0  0  0  0  0  0
    0.5794    0.3026   30.7484 C   0  0  0  0  0  0  0  0  0  0  0  0
    0.7647   -1.0760   30.6298 C   0  0  0  0  0  0  0  0  0  0  0  0
   -0.0346   -1.8304   29.5899 C   0  0  0  0  0  0  0  0  0  0  0  0
    0.4848   -3.1370   29.3372 O   0  0  0  0  0  0  0  0  0  0  0  0
   -1.5079   -1.9057   29.9795 C   0  0  0  0  0  0  0  0  0  0  0  0
   -1.9175   -2.5180   31.6175 S   0  0  0  0  0  0  0  0  0  0  0  0
   -1.0091   -3.9947   31.8175 C   0  0  0  0  0  0  0  0  0  0  0  0
   -1.5460   -1.5705   32.6452 O   0  0  0  0  0  0  0  0  0  0  0  0
   -3.2925   -2.9852   31.5841 O   0  0  0  0  0  0  0  0  0  0  0  0
    1.3901   -1.7687   31.6846 C   0  0  0  0  0  0  0  0  0  0  0  0
    0.9925   -3.4645   33.9295 N   0  0  0  0  0  0  0  0  0  0  0  0
    0.9459   -4.0254   35.1158 C   0  0  0  0  0  0  0  0  0  0  0  0
    0.5814   -5.7316   35.3965 S   0  0  0  0  0  0  0  0  0  0  0  0
    0.7866   -6.2529   33.7224 C   0  0  0  0  0  0  0  0  0  0  0  0
    1.8783   -5.8672   33.0294 C   0  0  0  0  0  0  0  0  0  0  0  0
    1.8544   -5.8920   31.5802 C   0  0  0  0  0  0  0  0  0  0  0  0
    0.8664   -6.4810   30.8939 C   0  0  0  0  0  0  0  0  0  0  0  0
   -0.1696   -7.1131   31.6065 C   0  0  0  0  0  0  0  0  0  0  0  0
   -1.1999   -7.8196   31.2054 N   0  0  0  0  0  0  0  0  0  0  0  0
   -1.9163   -8.1520   32.3203 N   0  0  0  0  0  0  0  0  0  0  0  0
   -1.3293   -7.6105   33.3657 C   0  0  0  0  0  0  0  0  0  0  0  0
   -0.2009   -6.9458   32.9911 N   0  0  0  0  0  0  0  0  0  0  0  0
    2.1821   -3.8549   37.7204 H   0  0  0  0  0  0  0  0  0  0  0  0
    1.4954   -2.2139   37.9141 H   0  0  0  0  0  0  0  0  0  0  0  0
    0.4023   -3.6223   37.8259 H   0  0  0  0  0  0  0  0  0  0  0  0
    1.2183    0.6121   34.0791 H   0  0  0  0  0  0  0  0  0  0  0  0
    0.6540    1.9794   32.0963 H   0  0  0  0  0  0  0  0  0  0  0  0
    0.1393    0.8877   29.9441 H   0  0  0  0  0  0  0  0  0  0  0  0
    0.0554   -1.2864   28.6406 H   0  0  0  0  0  0  0  0  0  0  0  0
    0.1244   -3.4031   28.4695 H   0  0  0  0  0  0  0  0  0  0  0  0
   -2.0191   -2.5741   29.2797 H   0  0  0  0  0  0  0  0  0  0  0  0
   -1.9691   -0.9138   29.9185 H   0  0  0  0  0  0  0  0  0  0  0  0
    0.0450   -3.8391   31.7564 H   0  0  0  0  0  0  0  0  0  0  0  0
   -1.2822   -4.4070   32.7881 H   0  0  0  0  0  0  0  0  0  0  0  0
   -1.3126   -4.6729   31.0271 H   0  0  0  0  0  0  0  0  0  0  0  0
    1.6470   -2.8140   31.5501 H   0  0  0  0  0  0  0  0  0  0  0  0
    2.7084   -5.3288   33.4809 H   0  0  0  0  0  0  0  0  0  0  0  0
    2.6370   -5.3510   31.0539 H   0  0  0  0  0  0  0  0  0  0  0  0
    0.8404   -6.4698   29.8121 H   0  0  0  0  0  0  0  0  0  0  0  0
   -1.6541   -7.7002   34.3911 H   0  0  0  0  0  0  0  0  0  0  0  0
  1  2  1  0
  2  3  1  0
  3  4  2  0
  4  5  1  0
  5  6  2  0
  6  7  1  0
  7  8  2  0
  8  9  1  0
  9 10  1  0
 10 11  1  0
 10 12  1  0
 12 13  1  0
 13 14  1  0
 13 15  2  0
 13 16  2  0
  9 17  2  0
  4 18  1  0
 18 19  2  0
 19 20  1  0
 20 21  1  0
 21 22  2  0
 22 23  1  0
 23 24  2  0
 24 25  1  0
 25 26  2  0
 26 27  1  0
 27 28  2  0
 28 29  1  0
 19  2  1  0
 29 21  1  0
 17  5  1  0
 29 25  1  0
  1 30  1  0
  1 31  1  0
  1 32  1  0
  6 33  1  0
  7 34  1  0
  8 35  1  0
 10 36  1  0
 11 37  1  0
 12 38  1  0
 12 39  1  0
 14 40  1  0
 14 41  1  0
 14 42  1  0
 17 43  1  0
 22 44  1  0
 23 45  1  0
 24 46  1  0
 28 47  1  0
M  END
>  <Energy>  (695) 
94.637358070246904

>  <compound_id>  (695) 
2802

>  <target_id>  (695) 
1

>  <reference_id>  (695) 
202

>  <inspiration_ids>  (695) 
[183, 202]

>  <energy_score>  (695) 
-20.808260085813686

>  <distance_score>  (695) 
2.4439855609783248

>  <path>  (695) 
/opt/xchem-fragalysis-2/maxwin/BulkDock/SCRATCH/505736/C2802-P202/C2802-P202.minimised.mol

>  <scratch_subdir>  (695) 
/opt/xchem-fragalysis-2/maxwin/BulkDock/SCRATCH/505736/C2802-P202

>  <fragmenstein_runtime>  (695) 
9.531693696975708

>  <fragmenstein_outcome>  (695) 
too moved

>  <fragmenstein_mode>  (695) 
expansion

>  <fragmenstein_error>  (695) 


$$$$
C2803-P184
     RDKit          3D

 55 59  0  0  0  0  0  0  0  0999 V2000
   15.6379   -4.9013   19.8583 C   0  0  0  0  0  0  0  0  0  0  0  0
   15.1954   -3.6330   19.3359 N   0  0  0  0  0  0  0  0  0  0  0  0
   14.5227   -3.5815   18.1668 N   0  0  0  0  0  0  0  0  0  0  0  0
   14.2461   -2.2725   18.0629 C   0  0  0  0  0  0  0  0  0  0  0  0
   13.4383   -1.6888   16.9937 C   0  0  0  0  0  0  0  0  0  0  0  0
   13.0899   -0.3342   17.0355 C   0  0  0  0  0  0  0  0  0  0  0  0
   12.2338    0.2334   16.0815 C   0  0  0  0  0  0  0  0  0  0  0  0
   11.8390   -0.5117   14.9819 C   0  0  0  0  0  0  0  0  0  0  0  0
   12.3453   -1.8018   14.8418 C   0  0  0  0  0  0  0  0  0  0  0  0
   12.5916   -2.2770   13.4592 C   0  0  0  0  0  0  0  0  0  0  0  0
   11.9011   -3.1320   12.9323 O   0  0  0  0  0  0  0  0  0  0  0  0
   13.7034   -1.6567   12.9018 N   0  0  0  0  0  0  0  0  0  0  0  0
   13.6253   -0.4240   12.1093 C   0  0  0  0  0  0  0  0  0  0  0  0
   14.7819    0.5129   12.4288 C   0  0  0  0  0  0  0  0  0  0  0  0
   15.2678    0.1841   13.8275 C   0  0  0  0  0  0  0  0  0  0  0  0
   16.1733    1.2384   14.3867 C   0  0  0  0  0  0  0  0  0  0  0  0
   16.2975    1.0333   15.7840 O   0  0  0  0  0  0  0  0  0  0  0  0
   15.8774   -1.2326   13.8729 C   0  0  0  0  0  0  0  0  0  0  0  0
   15.0198   -2.2236   13.0904 C   0  0  0  0  0  0  0  0  0  0  0  0
   13.0318   -2.4312   15.8872 C   0  0  0  0  0  0  0  0  0  0  0  0
   14.7566   -1.5053   19.0948 N   0  0  0  0  0  0  0  0  0  0  0  0
   15.3492   -2.3837   19.8691 C   0  0  0  0  0  0  0  0  0  0  0  0
   16.1812   -2.1024   21.3637 S   0  0  0  0  0  0  0  0  0  0  0  0
   16.3565   -0.3771   21.3014 C   0  0  0  0  0  0  0  0  0  0  0  0
   17.5071    0.1835   20.8714 C   0  0  0  0  0  0  0  0  0  0  0  0
   17.6568    1.6326   20.8868 C   0  0  0  0  0  0  0  0  0  0  0  0
   16.6675    2.4376   21.3166 C   0  0  0  0  0  0  0  0  0  0  0  0
   15.4507    1.8646   21.7698 C   0  0  0  0  0  0  0  0  0  0  0  0
   14.3369    2.3982   22.2238 N   0  0  0  0  0  0  0  0  0  0  0  0
   13.4938    1.3707   22.5731 N   0  0  0  0  0  0  0  0  0  0  0  0
   14.1179    0.2399   22.3248 C   0  0  0  0  0  0  0  0  0  0  0  0
   15.3450    0.4780   21.7670 N   0  0  0  0  0  0  0  0  0  0  0  0
   15.4371   -5.6862   19.1242 H   0  0  0  0  0  0  0  0  0  0  0  0
   16.7129   -4.8506   20.0472 H   0  0  0  0  0  0  0  0  0  0  0  0
   15.0878   -5.1077   20.7795 H   0  0  0  0  0  0  0  0  0  0  0  0
   13.4613    0.2890   17.8495 H   0  0  0  0  0  0  0  0  0  0  0  0
   11.9388    1.2768   16.1694 H   0  0  0  0  0  0  0  0  0  0  0  0
   11.2750   -0.0504   14.1750 H   0  0  0  0  0  0  0  0  0  0  0  0
   12.6645    0.0674   12.2893 H   0  0  0  0  0  0  0  0  0  0  0  0
   13.7033   -0.6412   11.0483 H   0  0  0  0  0  0  0  0  0  0  0  0
   14.4481    1.5527   12.3376 H   0  0  0  0  0  0  0  0  0  0  0  0
   15.5969    0.3758   11.7064 H   0  0  0  0  0  0  0  0  0  0  0  0
   14.3990    0.1848   14.4855 H   0  0  0  0  0  0  0  0  0  0  0  0
   17.1710    1.2016   13.9382 H   0  0  0  0  0  0  0  0  0  0  0  0
   15.7718    2.2458   14.2333 H   0  0  0  0  0  0  0  0  0  0  0  0
   15.4122    1.0825   16.1810 H   0  0  0  0  0  0  0  0  0  0  0  0
   15.9562   -1.5586   14.9173 H   0  0  0  0  0  0  0  0  0  0  0  0
   16.8981   -1.2391   13.4723 H   0  0  0  0  0  0  0  0  0  0  0  0
   15.4714   -2.4225   12.1172 H   0  0  0  0  0  0  0  0  0  0  0  0
   14.9493   -3.1687   13.6245 H   0  0  0  0  0  0  0  0  0  0  0  0
   13.3498   -3.4566   15.7799 H   0  0  0  0  0  0  0  0  0  0  0  0
   18.3475   -0.4051   20.5152 H   0  0  0  0  0  0  0  0  0  0  0  0
   18.5963    2.0485   20.5332 H   0  0  0  0  0  0  0  0  0  0  0  0
   16.7729    3.5167   21.3273 H   0  0  0  0  0  0  0  0  0  0  0  0
   13.7427   -0.7507   22.5266 H   0  0  0  0  0  0  0  0  0  0  0  0
  1  2  1  0
  2  3  1  0
  3  4  2  0
  4  5  1  0
  5  6  2  0
  6  7  1  0
  7  8  2  0
  8  9  1  0
  9 10  1  0
 10 11  2  0
 10 12  1  0
 12 13  1  0
 13 14  1  0
 14 15  1  0
 15 16  1  0
 16 17  1  0
 15 18  1  0
 18 19  1  0
  9 20  2  0
  4 21  1  0
 21 22  2  0
 22 23  1  0
 23 24  1  0
 24 25  2  0
 25 26  1  0
 26 27  2  0
 27 28  1  0
 28 29  2  0
 29 30  1  0
 30 31  2  0
 31 32  1  0
 22  2  1  0
 32 24  1  0
 20  5  1  0
 32 28  1  0
 19 12  1  0
  1 33  1  0
  1 34  1  0
  1 35  1  0
  6 36  1  0
  7 37  1  0
  8 38  1  0
 13 39  1  0
 13 40  1  0
 14 41  1  0
 14 42  1  0
 15 43  1  0
 16 44  1  0
 16 45  1  0
 17 46  1  0
 18 47  1  0
 18 48  1  0
 19 49  1  0
 19 50  1  0
 20 51  1  0
 25 52  1  0
 26 53  1  0
 27 54  1  0
 31 55  1  0
M  END
>  <Energy>  (696) 
101.40972020995568

>  <compound_id>  (696) 
2803

>  <target_id>  (696) 
1

>  <reference_id>  (696) 
184

>  <inspiration_ids>  (696) 
[184, 4]

>  <energy_score>  (696) 
-31.145181823062785

>  <distance_score>  (696) 
1.527992141180357

>  <path>  (696) 
/opt/xchem-fragalysis-2/maxwin/BulkDock/SCRATCH/505736/C2803-P184/C2803-P184.minimised.mol

>  <scratch_subdir>  (696) 
/opt/xchem-fragalysis-2/maxwin/BulkDock/SCRATCH/505736/C2803-P184

>  <fragmenstein_runtime>  (696) 
3.8675622940063477

>  <fragmenstein_outcome>  (696) 
too moved

>  <fragmenstein_mode>  (696) 
expansion

>  <fragmenstein_error>  (696) 


$$$$
C2803-P4
     RDKit          3D

 55 59  0  0  0  0  0  0  0  0999 V2000
   15.6773   -5.0419   20.4921 C   0  0  0  0  0  0  0  0  0  0  0  0
   15.4627   -3.7596   19.8747 N   0  0  0  0  0  0  0  0  0  0  0  0
   15.0237   -3.6979   18.5919 N   0  0  0  0  0  0  0  0  0  0  0  0
   15.0077   -2.3753   18.3754 C   0  0  0  0  0  0  0  0  0  0  0  0
   14.6327   -1.6983   17.1489 C   0  0  0  0  0  0  0  0  0  0  0  0
   14.9227   -0.3184   17.0556 C   0  0  0  0  0  0  0  0  0  0  0  0
   14.4266    0.4540   16.0124 C   0  0  0  0  0  0  0  0  0  0  0  0
   13.6931   -0.1622   15.0156 C   0  0  0  0  0  0  0  0  0  0  0  0
   13.5799   -1.5536   15.0044 C   0  0  0  0  0  0  0  0  0  0  0  0
   13.3210   -2.1740   13.6940 C   0  0  0  0  0  0  0  0  0  0  0  0
   12.3862   -2.9399   13.5518 O   0  0  0  0  0  0  0  0  0  0  0  0
   14.2959   -1.8300   12.7677 N   0  0  0  0  0  0  0  0  0  0  0  0
   14.1598   -0.7202   11.8547 C   0  0  0  0  0  0  0  0  0  0  0  0
   15.2436    0.3134   12.1068 C   0  0  0  0  0  0  0  0  0  0  0  0
   16.2966   -0.2595   13.0594 C   0  0  0  0  0  0  0  0  0  0  0  0
   17.3183    0.7772   13.3942 C   0  0  0  0  0  0  0  0  0  0  0  0
   16.6498    1.8075   14.1291 O   0  0  0  0  0  0  0  0  0  0  0  0
   16.7433   -1.6213   12.5388 C   0  0  0  0  0  0  0  0  0  0  0  0
   15.5395   -2.5782   12.6552 C   0  0  0  0  0  0  0  0  0  0  0  0
   13.9660   -2.3317   16.1000 C   0  0  0  0  0  0  0  0  0  0  0  0
   15.3647   -1.6219   19.4668 N   0  0  0  0  0  0  0  0  0  0  0  0
   15.6668   -2.5073   20.3770 C   0  0  0  0  0  0  0  0  0  0  0  0
   16.2715   -2.1548   21.9579 S   0  0  0  0  0  0  0  0  0  0  0  0
   16.4637   -0.4331   21.7835 C   0  0  0  0  0  0  0  0  0  0  0  0
   17.6527    0.0976   21.4252 C   0  0  0  0  0  0  0  0  0  0  0  0
   17.7902    1.5419   21.2932 C   0  0  0  0  0  0  0  0  0  0  0  0
   16.7513    2.3697   21.5108 C   0  0  0  0  0  0  0  0  0  0  0  0
   15.4936    1.8278   21.8848 C   0  0  0  0  0  0  0  0  0  0  0  0
   14.3322    2.3876   22.1466 N   0  0  0  0  0  0  0  0  0  0  0  0
   13.4558    1.3884   22.4978 N   0  0  0  0  0  0  0  0  0  0  0  0
   14.1092    0.2485   22.4470 C   0  0  0  0  0  0  0  0  0  0  0  0
   15.3964    0.4476   22.0253 N   0  0  0  0  0  0  0  0  0  0  0  0
   16.2002   -5.6891   19.7835 H   0  0  0  0  0  0  0  0  0  0  0  0
   16.2894   -4.9406   21.3895 H   0  0  0  0  0  0  0  0  0  0  0  0
   14.7033   -5.4625   20.7529 H   0  0  0  0  0  0  0  0  0  0  0  0
   15.4819    0.1832   17.8450 H   0  0  0  0  0  0  0  0  0  0  0  0
   14.6146    1.5236   15.9778 H   0  0  0  0  0  0  0  0  0  0  0  0
   13.3246    0.4387   14.1924 H   0  0  0  0  0  0  0  0  0  0  0  0
   14.2585   -1.1147   10.8436 H   0  0  0  0  0  0  0  0  0  0  0  0
   13.2076   -0.2212   11.9993 H   0  0  0  0  0  0  0  0  0  0  0  0
   14.7937    1.2238   12.5203 H   0  0  0  0  0  0  0  0  0  0  0  0
   15.6957    0.6134   11.1529 H   0  0  0  0  0  0  0  0  0  0  0  0
   15.8598   -0.4660   14.0311 H   0  0  0  0  0  0  0  0  0  0  0  0
   18.1095    0.3653   14.0287 H   0  0  0  0  0  0  0  0  0  0  0  0
   17.7740    1.2152   12.5007 H   0  0  0  0  0  0  0  0  0  0  0  0
   17.3322    2.4529   14.3832 H   0  0  0  0  0  0  0  0  0  0  0  0
   17.5908   -2.0182   13.1087 H   0  0  0  0  0  0  0  0  0  0  0  0
   17.0682   -1.5458   11.4941 H   0  0  0  0  0  0  0  0  0  0  0  0
   15.4731   -3.2222   11.7741 H   0  0  0  0  0  0  0  0  0  0  0  0
   15.6585   -3.1739   13.5610 H   0  0  0  0  0  0  0  0  0  0  0  0
   13.7981   -3.4028   16.1136 H   0  0  0  0  0  0  0  0  0  0  0  0
   18.5268   -0.5141   21.2232 H   0  0  0  0  0  0  0  0  0  0  0  0
   18.7619    1.9346   21.0079 H   0  0  0  0  0  0  0  0  0  0  0  0
   16.8467    3.4452   21.4119 H   0  0  0  0  0  0  0  0  0  0  0  0
   13.7141   -0.7207   22.7072 H   0  0  0  0  0  0  0  0  0  0  0  0
  1  2  1  0
  2  3  1  0
  3  4  2  0
  4  5  1  0
  5  6  2  0
  6  7  1  0
  7  8  2  0
  8  9  1  0
  9 10  1  0
 10 11  2  0
 10 12  1  0
 12 13  1  0
 13 14  1  0
 14 15  1  0
 15 16  1  0
 16 17  1  0
 15 18  1  0
 18 19  1  0
  9 20  2  0
  4 21  1  0
 21 22  2  0
 22 23  1  0
 23 24  1  0
 24 25  2  0
 25 26  1  0
 26 27  2  0
 27 28  1  0
 28 29  2  0
 29 30  1  0
 30 31  2  0
 31 32  1  0
 22  2  1  0
 32 24  1  0
 20  5  1  0
 32 28  1  0
 19 12  1  0
  1 33  1  0
  1 34  1  0
  1 35  1  0
  6 36  1  0
  7 37  1  0
  8 38  1  0
 13 39  1  0
 13 40  1  0
 14 41  1  0
 14 42  1  0
 15 43  1  0
 16 44  1  0
 16 45  1  0
 17 46  1  0
 18 47  1  0
 18 48  1  0
 19 49  1  0
 19 50  1  0
 20 51  1  0
 25 52  1  0
 26 53  1  0
 27 54  1  0
 31 55  1  0
M  END
>  <Energy>  (697) 
108.27513142498123

>  <compound_id>  (697) 
2803

>  <target_id>  (697) 
1

>  <reference_id>  (697) 
4

>  <inspiration_ids>  (697) 
[184, 4]

>  <energy_score>  (697) 
-24.279770608034653

>  <distance_score>  (697) 
1.8340138096206906

>  <path>  (697) 
/opt/xchem-fragalysis-2/maxwin/BulkDock/SCRATCH/505736/C2803-P4/C2803-P4.minimised.mol

>  <scratch_subdir>  (697) 
/opt/xchem-fragalysis-2/maxwin/BulkDock/SCRATCH/505736/C2803-P4

>  <fragmenstein_runtime>  (697) 
4.489520788192749

>  <fragmenstein_outcome>  (697) 
too moved

>  <fragmenstein_mode>  (697) 
expansion

>  <fragmenstein_error>  (697) 


$$$$
C2804-P184
     RDKit          3D

 41 44  0  0  0  0  0  0  0  0999 V2000
   15.7714   -5.0903   20.2798 C   0  0  0  0  0  0  0  0  0  0  0  0
   15.3058   -3.8775   19.6588 N   0  0  0  0  0  0  0  0  0  0  0  0
   14.6155   -3.9402   18.5045 N   0  0  0  0  0  0  0  0  0  0  0  0
   14.3199   -2.6534   18.2829 C   0  0  0  0  0  0  0  0  0  0  0  0
   13.4950   -2.1606   17.1889 C   0  0  0  0  0  0  0  0  0  0  0  0
   13.5302   -0.7896   16.8926 C   0  0  0  0  0  0  0  0  0  0  0  0
   12.6914   -0.2399   15.9271 C   0  0  0  0  0  0  0  0  0  0  0  0
   12.5999    1.0918   15.6528 O   0  0  0  0  0  0  0  0  0  0  0  0
   13.6822    1.9480   15.9996 C   0  0  0  0  0  0  0  0  0  0  0  0
   13.4386    2.7604   17.2619 C   0  0  0  0  0  0  0  0  0  0  0  0
   12.9785    3.8923   17.3091 O   0  0  0  0  0  0  0  0  0  0  0  0
   13.7742    2.0966   18.3877 O   0  0  0  0  0  0  0  0  0  0  0  0
   11.8162   -1.0726   15.2226 C   0  0  0  0  0  0  0  0  0  0  0  0
   11.7840   -2.4422   15.4879 C   0  0  0  0  0  0  0  0  0  0  0  0
   12.6107   -2.9740   16.4772 C   0  0  0  0  0  0  0  0  0  0  0  0
   12.4846   -4.2772   16.7596 F   0  0  0  0  0  0  0  0  0  0  0  0
   14.8626   -1.7859   19.2194 N   0  0  0  0  0  0  0  0  0  0  0  0
   15.4570   -2.5838   20.0728 C   0  0  0  0  0  0  0  0  0  0  0  0
   16.2842   -2.1587   21.5342 S   0  0  0  0  0  0  0  0  0  0  0  0
   16.4383   -0.4407   21.3369 C   0  0  0  0  0  0  0  0  0  0  0  0
   17.6102    0.0984   20.9366 C   0  0  0  0  0  0  0  0  0  0  0  0
   17.7541    1.5460   20.8581 C   0  0  0  0  0  0  0  0  0  0  0  0
   16.7376    2.3718   21.1675 C   0  0  0  0  0  0  0  0  0  0  0  0
   15.4966    1.8229   21.5818 C   0  0  0  0  0  0  0  0  0  0  0  0
   14.3524    2.3807   21.9147 N   0  0  0  0  0  0  0  0  0  0  0  0
   13.4994    1.3769   22.3037 N   0  0  0  0  0  0  0  0  0  0  0  0
   14.1414    0.2347   22.1820 C   0  0  0  0  0  0  0  0  0  0  0  0
   15.3969    0.4381   21.6771 N   0  0  0  0  0  0  0  0  0  0  0  0
   16.8499   -5.0152   20.4379 H   0  0  0  0  0  0  0  0  0  0  0  0
   15.2459   -5.2181   21.2293 H   0  0  0  0  0  0  0  0  0  0  0  0
   15.5608   -5.9403   19.6252 H   0  0  0  0  0  0  0  0  0  0  0  0
   14.1959   -0.1614   17.4772 H   0  0  0  0  0  0  0  0  0  0  0  0
   13.7840    2.6734   15.1830 H   0  0  0  0  0  0  0  0  0  0  0  0
   14.6544    1.4433   16.0447 H   0  0  0  0  0  0  0  0  0  0  0  0
   13.4770    2.6555   19.1423 H   0  0  0  0  0  0  0  0  0  0  0  0
   11.1529   -0.6559   14.4659 H   0  0  0  0  0  0  0  0  0  0  0  0
   11.1043   -3.0961   14.9478 H   0  0  0  0  0  0  0  0  0  0  0  0
   18.4757   -0.5071   20.6841 H   0  0  0  0  0  0  0  0  0  0  0  0
   18.7143    1.9433   20.5409 H   0  0  0  0  0  0  0  0  0  0  0  0
   16.8405    3.4498   21.1111 H   0  0  0  0  0  0  0  0  0  0  0  0
   13.7591   -0.7410   22.4375 H   0  0  0  0  0  0  0  0  0  0  0  0
  1  2  1  0
  2  3  1  0
  3  4  2  0
  4  5  1  0
  5  6  2  0
  6  7  1  0
  7  8  1  0
  8  9  1  0
  9 10  1  0
 10 11  2  0
 10 12  1  0
  7 13  2  0
 13 14  1  0
 14 15  2  0
 15 16  1  0
  4 17  1  0
 17 18  2  0
 18 19  1  0
 19 20  1  0
 20 21  2  0
 21 22  1  0
 22 23  2  0
 23 24  1  0
 24 25  2  0
 25 26  1  0
 26 27  2  0
 27 28  1  0
 18  2  1  0
 28 20  1  0
 15  5  1  0
 28 24  1  0
  1 29  1  0
  1 30  1  0
  1 31  1  0
  6 32  1  0
  9 33  1  0
  9 34  1  0
 12 35  1  0
 13 36  1  0
 14 37  1  0
 21 38  1  0
 22 39  1  0
 23 40  1  0
 27 41  1  0
M  END
>  <Energy>  (698) 
61.54706202277908

>  <compound_id>  (698) 
2804

>  <target_id>  (698) 
1

>  <reference_id>  (698) 
184

>  <inspiration_ids>  (698) 
[184, 6]

>  <energy_score>  (698) 
-50.9018008197458

>  <distance_score>  (698) 
1.1748197814249293

>  <path>  (698) 
/opt/xchem-fragalysis-2/maxwin/BulkDock/SCRATCH/505736/C2804-P184/C2804-P184.minimised.mol

>  <scratch_subdir>  (698) 
/opt/xchem-fragalysis-2/maxwin/BulkDock/SCRATCH/505736/C2804-P184

>  <fragmenstein_runtime>  (698) 
2.6889214515686035

>  <fragmenstein_outcome>  (698) 
too moved

>  <fragmenstein_mode>  (698) 
expansion

>  <fragmenstein_error>  (698) 


$$$$
C2804-P6
     RDKit          3D

 41 44  0  0  0  0  0  0  0  0999 V2000
   15.7854   -4.9587   20.4128 C   0  0  0  0  0  0  0  0  0  0  0  0
   15.3248   -3.7535   19.7722 N   0  0  0  0  0  0  0  0  0  0  0  0
   14.6107   -3.8586   18.6358 N   0  0  0  0  0  0  0  0  0  0  0  0
   14.3480   -2.5816   18.3359 C   0  0  0  0  0  0  0  0  0  0  0  0
   13.5314   -2.1326   17.2121 C   0  0  0  0  0  0  0  0  0  0  0  0
   13.5307   -0.7616   16.8958 C   0  0  0  0  0  0  0  0  0  0  0  0
   12.6795   -0.2489   15.9188 C   0  0  0  0  0  0  0  0  0  0  0  0
   12.5485    1.0732   15.6121 O   0  0  0  0  0  0  0  0  0  0  0  0
   13.5261    1.9915   16.0834 C   0  0  0  0  0  0  0  0  0  0  0  0
   13.2872    2.5253   17.4871 C   0  0  0  0  0  0  0  0  0  0  0  0
   14.1052    2.5125   18.3931 O   0  0  0  0  0  0  0  0  0  0  0  0
   12.0529    3.0435   17.6525 O   0  0  0  0  0  0  0  0  0  0  0  0
   11.8386   -1.1167   15.2161 C   0  0  0  0  0  0  0  0  0  0  0  0
   11.8442   -2.4827   15.4973 C   0  0  0  0  0  0  0  0  0  0  0  0
   12.6770   -2.9814   16.4992 C   0  0  0  0  0  0  0  0  0  0  0  0
   12.5735   -4.2846   16.7935 F   0  0  0  0  0  0  0  0  0  0  0  0
   14.8956   -1.6821   19.2379 N   0  0  0  0  0  0  0  0  0  0  0  0
   15.4890   -2.4454   20.1246 C   0  0  0  0  0  0  0  0  0  0  0  0
   16.3435   -1.9668   21.5509 S   0  0  0  0  0  0  0  0  0  0  0  0
   16.3782   -0.2458   21.3565 C   0  0  0  0  0  0  0  0  0  0  0  0
   17.4771    0.3643   20.8634 C   0  0  0  0  0  0  0  0  0  0  0  0
   17.5311    1.8181   20.8041 C   0  0  0  0  0  0  0  0  0  0  0  0
   16.5104    2.5779   21.2430 C   0  0  0  0  0  0  0  0  0  0  0  0
   15.3531    1.9531   21.7764 C   0  0  0  0  0  0  0  0  0  0  0  0
   14.2429    2.4373   22.2906 N   0  0  0  0  0  0  0  0  0  0  0  0
   13.4711    1.3746   22.6961 N   0  0  0  0  0  0  0  0  0  0  0  0
   14.1374    0.2733   22.4283 C   0  0  0  0  0  0  0  0  0  0  0  0
   15.3277    0.5640   21.8181 N   0  0  0  0  0  0  0  0  0  0  0  0
   16.3715   -4.7341   21.3042 H   0  0  0  0  0  0  0  0  0  0  0  0
   14.9118   -5.5528   20.6936 H   0  0  0  0  0  0  0  0  0  0  0  0
   16.4083   -5.5089   19.7027 H   0  0  0  0  0  0  0  0  0  0  0  0
   14.1802   -0.1072   17.4721 H   0  0  0  0  0  0  0  0  0  0  0  0
   13.5072    2.8587   15.4127 H   0  0  0  0  0  0  0  0  0  0  0  0
   14.5402    1.5812   16.0052 H   0  0  0  0  0  0  0  0  0  0  0  0
   11.9683    3.2925   18.6100 H   0  0  0  0  0  0  0  0  0  0  0  0
   11.1726   -0.7323   14.4443 H   0  0  0  0  0  0  0  0  0  0  0  0
   11.1903   -3.1582   14.9518 H   0  0  0  0  0  0  0  0  0  0  0  0
   18.3471   -0.1861   20.5187 H   0  0  0  0  0  0  0  0  0  0  0  0
   18.4223    2.2772   20.3865 H   0  0  0  0  0  0  0  0  0  0  0  0
   16.5398    3.6604   21.1933 H   0  0  0  0  0  0  0  0  0  0  0  0
   13.8176   -0.7310   22.6577 H   0  0  0  0  0  0  0  0  0  0  0  0
  1  2  1  0
  2  3  1  0
  3  4  2  0
  4  5  1  0
  5  6  2  0
  6  7  1  0
  7  8  1  0
  8  9  1  0
  9 10  1  0
 10 11  2  0
 10 12  1  0
  7 13  2  0
 13 14  1  0
 14 15  2  0
 15 16  1  0
  4 17  1  0
 17 18  2  0
 18 19  1  0
 19 20  1  0
 20 21  2  0
 21 22  1  0
 22 23  2  0
 23 24  1  0
 24 25  2  0
 25 26  1  0
 26 27  2  0
 27 28  1  0
 18  2  1  0
 28 20  1  0
 15  5  1  0
 28 24  1  0
  1 29  1  0
  1 30  1  0
  1 31  1  0
  6 32  1  0
  9 33  1  0
  9 34  1  0
 12 35  1  0
 13 36  1  0
 14 37  1  0
 21 38  1  0
 22 39  1  0
 23 40  1  0
 27 41  1  0
M  END
>  <Energy>  (699) 
62.994369546757255

>  <compound_id>  (699) 
2804

>  <target_id>  (699) 
1

>  <reference_id>  (699) 
6

>  <inspiration_ids>  (699) 
[184, 6]

>  <energy_score>  (699) 
-49.45449329576459

>  <distance_score>  (699) 
1.2726142395357334

>  <path>  (699) 
/opt/xchem-fragalysis-2/maxwin/BulkDock/SCRATCH/505736/C2804-P6/C2804-P6.minimised.mol

>  <scratch_subdir>  (699) 
/opt/xchem-fragalysis-2/maxwin/BulkDock/SCRATCH/505736/C2804-P6

>  <fragmenstein_runtime>  (699) 
2.0759389400482178

>  <fragmenstein_outcome>  (699) 
too moved

>  <fragmenstein_mode>  (699) 
expansion

>  <fragmenstein_error>  (699) 


$$$$
C2805-P184
     RDKit          3D

 53 57  0  0  0  0  0  0  0  0999 V2000
   15.7096   -4.9353   19.9859 C   0  0  0  0  0  0  0  0  0  0  0  0
   15.1385   -3.7328   19.4335 N   0  0  0  0  0  0  0  0  0  0  0  0
   14.4649   -3.7912   18.2722 N   0  0  0  0  0  0  0  0  0  0  0  0
   14.1146   -2.5063   18.0831 C   0  0  0  0  0  0  0  0  0  0  0  0
   13.2937   -2.0904   16.9322 C   0  0  0  0  0  0  0  0  0  0  0  0
   12.3185   -2.9943   16.4669 C   0  0  0  0  0  0  0  0  0  0  0  0
   11.4678   -2.6730   15.4085 C   0  0  0  0  0  0  0  0  0  0  0  0
   11.5554   -1.4276   14.8068 C   0  0  0  0  0  0  0  0  0  0  0  0
   12.5456   -0.5368   15.2092 C   0  0  0  0  0  0  0  0  0  0  0  0
   13.4556   -0.8698   16.2349 C   0  0  0  0  0  0  0  0  0  0  0  0
   14.6119    0.0871   16.4629 C   0  0  0  0  0  0  0  0  0  0  0  0
   15.8740   -0.6031   16.6895 N   0  0  0  0  0  0  0  0  0  0  0  0
   16.9015    0.3000   17.1762 C   0  0  0  0  0  0  0  0  0  0  0  0
   18.2646   -0.3825   17.2684 C   0  0  0  0  0  0  0  0  0  0  0  0
   18.1272   -1.8903   17.4317 C   0  0  0  0  0  0  0  0  0  0  0  0
   19.4141   -2.4921   17.5538 O   0  0  0  0  0  0  0  0  0  0  0  0
   17.3597   -2.5038   16.2623 C   0  0  0  0  0  0  0  0  0  0  0  0
   16.3548   -1.5156   15.6606 C   0  0  0  0  0  0  0  0  0  0  0  0
   14.5226   -1.6590   19.1097 N   0  0  0  0  0  0  0  0  0  0  0  0
   15.1743   -2.4579   19.9260 C   0  0  0  0  0  0  0  0  0  0  0  0
   15.9508   -2.1037   21.4370 S   0  0  0  0  0  0  0  0  0  0  0  0
   16.2215   -0.3987   21.3159 C   0  0  0  0  0  0  0  0  0  0  0  0
   17.4214    0.0823   20.9253 C   0  0  0  0  0  0  0  0  0  0  0  0
   17.6633    1.5197   20.9293 C   0  0  0  0  0  0  0  0  0  0  0  0
   16.7146    2.3909   21.3200 C   0  0  0  0  0  0  0  0  0  0  0  0
   15.4543    1.9007   21.7510 C   0  0  0  0  0  0  0  0  0  0  0  0
   14.3734    2.5069   22.1933 N   0  0  0  0  0  0  0  0  0  0  0  0
   13.4676    1.5368   22.5516 N   0  0  0  0  0  0  0  0  0  0  0  0
   14.0238    0.3684   22.3193 C   0  0  0  0  0  0  0  0  0  0  0  0
   15.2602    0.5239   21.7552 N   0  0  0  0  0  0  0  0  0  0  0  0
   15.2110   -5.1547   20.9331 H   0  0  0  0  0  0  0  0  0  0  0  0
   16.7815   -4.7814   20.1326 H   0  0  0  0  0  0  0  0  0  0  0  0
   15.5560   -5.7647   19.2902 H   0  0  0  0  0  0  0  0  0  0  0  0
   12.2124   -3.9682   16.9447 H   0  0  0  0  0  0  0  0  0  0  0  0
   10.7321   -3.3948   15.0646 H   0  0  0  0  0  0  0  0  0  0  0  0
   10.8762   -1.1594   14.0021 H   0  0  0  0  0  0  0  0  0  0  0  0
   12.6372    0.4110   14.6815 H   0  0  0  0  0  0  0  0  0  0  0  0
   14.7180    0.7683   15.6090 H   0  0  0  0  0  0  0  0  0  0  0  0
   14.3450    0.6990   17.3346 H   0  0  0  0  0  0  0  0  0  0  0  0
   16.6151    0.6605   18.1693 H   0  0  0  0  0  0  0  0  0  0  0  0
   16.9976    1.1845   16.5336 H   0  0  0  0  0  0  0  0  0  0  0  0
   18.8463   -0.1734   16.3601 H   0  0  0  0  0  0  0  0  0  0  0  0
   18.8516    0.0413   18.0914 H   0  0  0  0  0  0  0  0  0  0  0  0
   17.6013   -2.1026   18.3672 H   0  0  0  0  0  0  0  0  0  0  0  0
   19.8968   -2.3390   16.7232 H   0  0  0  0  0  0  0  0  0  0  0  0
   16.8450   -3.4053   16.6155 H   0  0  0  0  0  0  0  0  0  0  0  0
   18.0448   -2.8448   15.4763 H   0  0  0  0  0  0  0  0  0  0  0  0
   15.5543   -2.1005   15.1951 H   0  0  0  0  0  0  0  0  0  0  0  0
   16.8224   -0.9491   14.8445 H   0  0  0  0  0  0  0  0  0  0  0  0
   18.2376   -0.5663   20.6193 H   0  0  0  0  0  0  0  0  0  0  0  0
   18.6392    1.8694   20.6044 H   0  0  0  0  0  0  0  0  0  0  0  0
   16.8880    3.4611   21.3262 H   0  0  0  0  0  0  0  0  0  0  0  0
   13.5980   -0.5949   22.5441 H   0  0  0  0  0  0  0  0  0  0  0  0
  1  2  1  0
  2  3  1  0
  3  4  2  0
  4  5  1  0
  5  6  2  0
  6  7  1  0
  7  8  2  0
  8  9  1  0
  9 10  2  0
 10 11  1  0
 11 12  1  0
 12 13  1  0
 13 14  1  0
 14 15  1  0
 15 16  1  0
 15 17  1  0
 17 18  1  0
  4 19  1  0
 19 20  2  0
 20 21  1  0
 21 22  1  0
 22 23  2  0
 23 24  1  0
 24 25  2  0
 25 26  1  0
 26 27  2  0
 27 28  1  0
 28 29  2  0
 29 30  1  0
 20  2  1  0
 30 22  1  0
 10  5  1  0
 18 12  1  0
 30 26  1  0
  1 31  1  0
  1 32  1  0
  1 33  1  0
  6 34  1  0
  7 35  1  0
  8 36  1  0
  9 37  1  0
 11 38  1  0
 11 39  1  0
 13 40  1  0
 13 41  1  0
 14 42  1  0
 14 43  1  0
 15 44  1  0
 16 45  1  0
 17 46  1  0
 17 47  1  0
 18 48  1  0
 18 49  1  0
 23 50  1  0
 24 51  1  0
 25 52  1  0
 29 53  1  0
M  END
>  <Energy>  (700) 
74.226230003851853

>  <compound_id>  (700) 
2805

>  <target_id>  (700) 
1

>  <reference_id>  (700) 
184

>  <inspiration_ids>  (700) 
[184, 8]

>  <energy_score>  (700) 
-64.52275214241666

>  <distance_score>  (700) 
1.3107758325822976

>  <path>  (700) 
/opt/xchem-fragalysis-2/maxwin/BulkDock/SCRATCH/505736/C2805-P184/C2805-P184.minimised.mol

>  <scratch_subdir>  (700) 
/opt/xchem-fragalysis-2/maxwin/BulkDock/SCRATCH/505736/C2805-P184

>  <fragmenstein_runtime>  (700) 
4.886959791183472

>  <fragmenstein_outcome>  (700) 
too moved

>  <fragmenstein_mode>  (700) 
expansion

>  <fragmenstein_error>  (700) 


$$$$
C2805-P8
     RDKit          3D

 53 57  0  0  0  0  0  0  0  0999 V2000
   15.7752   -4.9980   20.1944 C   0  0  0  0  0  0  0  0  0  0  0  0
   15.2144   -3.8159   19.5907 N   0  0  0  0  0  0  0  0  0  0  0  0
   14.5236   -3.9163   18.4407 N   0  0  0  0  0  0  0  0  0  0  0  0
   14.2095   -2.6307   18.1883 C   0  0  0  0  0  0  0  0  0  0  0  0
   13.3945   -2.2302   17.0254 C   0  0  0  0  0  0  0  0  0  0  0  0
   12.4513   -3.1545   16.5349 C   0  0  0  0  0  0  0  0  0  0  0  0
   11.5918   -2.8289   15.4856 C   0  0  0  0  0  0  0  0  0  0  0  0
   11.6426   -1.5646   14.9200 C   0  0  0  0  0  0  0  0  0  0  0  0
   12.6002   -0.6530   15.3425 C   0  0  0  0  0  0  0  0  0  0  0  0
   13.5188   -0.9865   16.3560 C   0  0  0  0  0  0  0  0  0  0  0  0
   14.6530   -0.0053   16.5857 C   0  0  0  0  0  0  0  0  0  0  0  0
   15.9349   -0.6686   16.7690 N   0  0  0  0  0  0  0  0  0  0  0  0
   16.9619    0.2567   17.2093 C   0  0  0  0  0  0  0  0  0  0  0  0
   18.3311   -0.4145   17.2866 C   0  0  0  0  0  0  0  0  0  0  0  0
   18.2095   -1.9222   17.4701 C   0  0  0  0  0  0  0  0  0  0  0  0
   19.5058   -2.5099   17.5699 O   0  0  0  0  0  0  0  0  0  0  0  0
   17.4217   -2.5574   16.3254 C   0  0  0  0  0  0  0  0  0  0  0  0
   16.3974   -1.5842   15.7333 C   0  0  0  0  0  0  0  0  0  0  0  0
   14.6318   -1.7508   19.1815 N   0  0  0  0  0  0  0  0  0  0  0  0
   15.2718   -2.5230   20.0288 C   0  0  0  0  0  0  0  0  0  0  0  0
   16.0600   -2.1157   21.5189 S   0  0  0  0  0  0  0  0  0  0  0  0
   16.2685   -0.4048   21.3653 C   0  0  0  0  0  0  0  0  0  0  0  0
   17.4468    0.1098   20.9526 C   0  0  0  0  0  0  0  0  0  0  0  0
   17.6404    1.5542   20.9318 C   0  0  0  0  0  0  0  0  0  0  0  0
   16.6683    2.3989   21.3231 C   0  0  0  0  0  0  0  0  0  0  0  0
   15.4313    1.8735   21.7797 C   0  0  0  0  0  0  0  0  0  0  0  0
   14.3401    2.4497   22.2362 N   0  0  0  0  0  0  0  0  0  0  0  0
   13.4692    1.4556   22.6149 N   0  0  0  0  0  0  0  0  0  0  0  0
   14.0580    0.3032   22.3854 C   0  0  0  0  0  0  0  0  0  0  0  0
   15.2816    0.4915   21.8030 N   0  0  0  0  0  0  0  0  0  0  0  0
   15.6175   -5.8561   19.5369 H   0  0  0  0  0  0  0  0  0  0  0  0
   15.2743   -5.1724   21.1498 H   0  0  0  0  0  0  0  0  0  0  0  0
   16.8482   -4.8471   20.3359 H   0  0  0  0  0  0  0  0  0  0  0  0
   12.3758   -4.1458   16.9808 H   0  0  0  0  0  0  0  0  0  0  0  0
   10.8800   -3.5610   15.1133 H   0  0  0  0  0  0  0  0  0  0  0  0
   10.9673   -1.2959   14.1156 H   0  0  0  0  0  0  0  0  0  0  0  0
   12.6625    0.3074   14.8345 H   0  0  0  0  0  0  0  0  0  0  0  0
   14.7255    0.6979   15.7461 H   0  0  0  0  0  0  0  0  0  0  0  0
   14.3899    0.5803   17.4763 H   0  0  0  0  0  0  0  0  0  0  0  0
   16.6957    0.6395   18.1994 H   0  0  0  0  0  0  0  0  0  0  0  0
   17.0350    1.1258   16.5431 H   0  0  0  0  0  0  0  0  0  0  0  0
   18.8963   -0.2115   16.3665 H   0  0  0  0  0  0  0  0  0  0  0  0
   18.9280    0.0232   18.0953 H   0  0  0  0  0  0  0  0  0  0  0  0
   17.7065   -2.1281   18.4201 H   0  0  0  0  0  0  0  0  0  0  0  0
   19.9581   -2.3755   16.7194 H   0  0  0  0  0  0  0  0  0  0  0  0
   16.9200   -3.4564   16.7037 H   0  0  0  0  0  0  0  0  0  0  0  0
   18.0916   -2.9052   15.5296 H   0  0  0  0  0  0  0  0  0  0  0  0
   15.5948   -2.1799   15.2865 H   0  0  0  0  0  0  0  0  0  0  0  0
   16.8440   -1.0195   14.9043 H   0  0  0  0  0  0  0  0  0  0  0  0
   18.2802   -0.5159   20.6457 H   0  0  0  0  0  0  0  0  0  0  0  0
   18.5984    1.9318   20.5862 H   0  0  0  0  0  0  0  0  0  0  0  0
   16.8038    3.4744   21.3093 H   0  0  0  0  0  0  0  0  0  0  0  0
   13.6665   -0.6697   22.6310 H   0  0  0  0  0  0  0  0  0  0  0  0
  1  2  1  0
  2  3  1  0
  3  4  2  0
  4  5  1  0
  5  6  2  0
  6  7  1  0
  7  8  2  0
  8  9  1  0
  9 10  2  0
 10 11  1  0
 11 12  1  0
 12 13  1  0
 13 14  1  0
 14 15  1  0
 15 16  1  0
 15 17  1  0
 17 18  1  0
  4 19  1  0
 19 20  2  0
 20 21  1  0
 21 22  1  0
 22 23  2  0
 23 24  1  0
 24 25  2  0
 25 26  1  0
 26 27  2  0
 27 28  1  0
 28 29  2  0
 29 30  1  0
 20  2  1  0
 30 22  1  0
 10  5  1  0
 18 12  1  0
 30 26  1  0
  1 31  1  0
  1 32  1  0
  1 33  1  0
  6 34  1  0
  7 35  1  0
  8 36  1  0
  9 37  1  0
 11 38  1  0
 11 39  1  0
 13 40  1  0
 13 41  1  0
 14 42  1  0
 14 43  1  0
 15 44  1  0
 16 45  1  0
 17 46  1  0
 17 47  1  0
 18 48  1  0
 18 49  1  0
 23 50  1  0
 24 51  1  0
 25 52  1  0
 29 53  1  0
M  END
>  <Energy>  (701) 
74.654207184867161

>  <compound_id>  (701) 
2805

>  <target_id>  (701) 
1

>  <reference_id>  (701) 
8

>  <inspiration_ids>  (701) 
[184, 8]

>  <energy_score>  (701) 
-64.09477496139971

>  <distance_score>  (701) 
1.3133458220140213

>  <path>  (701) 
/opt/xchem-fragalysis-2/maxwin/BulkDock/SCRATCH/505736/C2805-P8/C2805-P8.minimised.mol

>  <scratch_subdir>  (701) 
/opt/xchem-fragalysis-2/maxwin/BulkDock/SCRATCH/505736/C2805-P8

>  <fragmenstein_runtime>  (701) 
4.860728025436401

>  <fragmenstein_outcome>  (701) 
too moved

>  <fragmenstein_mode>  (701) 
expansion

>  <fragmenstein_error>  (701) 


$$$$
C2807-P184
     RDKit          3D

 57 61  0  0  0  0  0  0  0  0999 V2000
   14.8204    1.1558   17.1864 C   0  0  0  0  0  0  0  0  0  0  0  0
   15.8007    0.5679   16.1938 C   0  0  0  0  0  0  0  0  0  0  0  0
   16.9390    0.3906   16.5447 O   0  0  0  0  0  0  0  0  0  0  0  0
   15.1862    0.4034   14.9104 N   0  0  0  0  0  0  0  0  0  0  0  0
   15.7830    0.0693   13.5779 C   0  0  0  0  0  0  0  0  0  0  0  0
   16.5610   -1.2209   13.4873 C   0  0  0  0  0  0  0  0  0  0  0  0
   16.5943   -1.7903   12.0911 C   0  0  0  0  0  0  0  0  0  0  0  0
   16.2000   -1.2532   11.0678 O   0  0  0  0  0  0  0  0  0  0  0  0
   17.1151   -3.0327   12.0694 O   0  0  0  0  0  0  0  0  0  0  0  0
   15.7677   -2.0484   14.4355 C   0  0  0  0  0  0  0  0  0  0  0  0
   14.5894   -1.1133   14.7517 C   0  0  0  0  0  0  0  0  0  0  0  0
   13.4623   -1.2281   13.6175 C   0  0  0  0  0  0  0  0  0  0  0  0
   12.2714   -0.3039   13.8484 C   0  0  0  0  0  0  0  0  0  0  0  0
   11.9821   -0.0277   15.3127 C   0  0  0  0  0  0  0  0  0  0  0  0
   12.3931   -1.1651   16.2384 C   0  0  0  0  0  0  0  0  0  0  0  0
   13.7890   -1.7629   15.9784 C   0  0  0  0  0  0  0  0  0  0  0  0
   14.5221   -2.2004   17.2264 C   0  0  0  0  0  0  0  0  0  0  0  0
   14.6014   -1.4698   18.3892 N   0  0  0  0  0  0  0  0  0  0  0  0
   15.1924   -2.2903   19.2303 C   0  0  0  0  0  0  0  0  0  0  0  0
   15.5920   -2.0166   20.8945 S   0  0  0  0  0  0  0  0  0  0  0  0
   16.0354   -0.3418   20.8232 C   0  0  0  0  0  0  0  0  0  0  0  0
   17.1537    0.0692   20.1872 C   0  0  0  0  0  0  0  0  0  0  0  0
   17.5025    1.4835   20.1770 C   0  0  0  0  0  0  0  0  0  0  0  0
   16.7336    2.4020   20.7904 C   0  0  0  0  0  0  0  0  0  0  0  0
   15.5601    1.9856   21.4722 C   0  0  0  0  0  0  0  0  0  0  0  0
   14.6381    2.6509   22.1340 N   0  0  0  0  0  0  0  0  0  0  0  0
   13.7350    1.7387   22.6266 N   0  0  0  0  0  0  0  0  0  0  0  0
   14.1327    0.5418   22.2549 C   0  0  0  0  0  0  0  0  0  0  0  0
   15.2618    0.6273   21.4826 N   0  0  0  0  0  0  0  0  0  0  0  0
   15.4075   -3.4904   18.6162 N   0  0  0  0  0  0  0  0  0  0  0  0
   15.9477   -4.7078   19.1667 C   0  0  0  0  0  0  0  0  0  0  0  0
   15.0071   -3.4488   17.3291 N   0  0  0  0  0  0  0  0  0  0  0  0
   14.6450    2.2025   16.9175 H   0  0  0  0  0  0  0  0  0  0  0  0
   15.2544    1.1393   18.1868 H   0  0  0  0  0  0  0  0  0  0  0  0
   13.8687    0.6505   17.2258 H   0  0  0  0  0  0  0  0  0  0  0  0
   15.1003    0.3261   12.7604 H   0  0  0  0  0  0  0  0  0  0  0  0
   16.5409    0.8603   13.4587 H   0  0  0  0  0  0  0  0  0  0  0  0
   17.5934   -1.0891   13.8310 H   0  0  0  0  0  0  0  0  0  0  0  0
   17.0584   -3.3757   11.1446 H   0  0  0  0  0  0  0  0  0  0  0  0
   16.3830   -2.2590   15.3156 H   0  0  0  0  0  0  0  0  0  0  0  0
   15.4165   -2.9939   14.0221 H   0  0  0  0  0  0  0  0  0  0  0  0
   13.0879   -2.2628   13.5950 H   0  0  0  0  0  0  0  0  0  0  0  0
   13.8227   -1.0958   12.5939 H   0  0  0  0  0  0  0  0  0  0  0  0
   11.3862   -0.7490   13.3838 H   0  0  0  0  0  0  0  0  0  0  0  0
   12.4366    0.6497   13.3326 H   0  0  0  0  0  0  0  0  0  0  0  0
   10.9145    0.1875   15.4440 H   0  0  0  0  0  0  0  0  0  0  0  0
   12.4961    0.8944   15.6000 H   0  0  0  0  0  0  0  0  0  0  0  0
   11.6479   -1.9674   16.1425 H   0  0  0  0  0  0  0  0  0  0  0  0
   12.3142   -0.8287   17.2681 H   0  0  0  0  0  0  0  0  0  0  0  0
   13.5154   -2.7560   15.5750 H   0  0  0  0  0  0  0  0  0  0  0  0
   17.8126   -0.6100   19.6543 H   0  0  0  0  0  0  0  0  0  0  0  0
   18.3978    1.7774   19.6359 H   0  0  0  0  0  0  0  0  0  0  0  0
   16.9833    3.4569   20.7754 H   0  0  0  0  0  0  0  0  0  0  0  0
   13.6535   -0.3908   22.5103 H   0  0  0  0  0  0  0  0  0  0  0  0
   15.3006   -5.0401   19.9822 H   0  0  0  0  0  0  0  0  0  0  0  0
   16.9606   -4.5107   19.5255 H   0  0  0  0  0  0  0  0  0  0  0  0
   15.9781   -5.4760   18.3890 H   0  0  0  0  0  0  0  0  0  0  0  0
  1  2  1  0
  2  3  2  0
  2  4  1  0
  4  5  1  0
  5  6  1  0
  6  7  1  0
  7  8  2  0
  7  9  1  0
  6 10  1  0
 10 11  1  0
 11 12  1  0
 12 13  1  0
 13 14  1  0
 14 15  1  0
 15 16  1  0
 16 17  1  0
 17 18  1  0
 18 19  2  0
 19 20  1  0
 20 21  1  0
 21 22  2  0
 22 23  1  0
 23 24  2  0
 24 25  1  0
 25 26  2  0
 26 27  1  0
 27 28  2  0
 28 29  1  0
 19 30  1  0
 30 31  1  0
 30 32  1  0
 11  4  1  0
 32 17  2  0
 16 11  1  0
 29 21  1  0
 29 25  1  0
  1 33  1  0
  1 34  1  0
  1 35  1  0
  5 36  1  0
  5 37  1  0
  6 38  1  0
  9 39  1  0
 10 40  1  0
 10 41  1  0
 12 42  1  0
 12 43  1  0
 13 44  1  0
 13 45  1  0
 14 46  1  0
 14 47  1  0
 15 48  1  0
 15 49  1  0
 16 50  1  0
 22 51  1  0
 23 52  1  0
 24 53  1  0
 28 54  1  0
 31 55  1  0
 31 56  1  0
 31 57  1  0
M  END
>  <Energy>  (702) 
110.44947945791002

>  <compound_id>  (702) 
2807

>  <target_id>  (702) 
1

>  <reference_id>  (702) 
184

>  <inspiration_ids>  (702) 
[184, 12]

>  <energy_score>  (702) 
0.6645905091667714

>  <distance_score>  (702) 
1.900748027210014

>  <path>  (702) 
/opt/xchem-fragalysis-2/maxwin/BulkDock/SCRATCH/505736/C2807-P184/C2807-P184.minimised.mol

>  <scratch_subdir>  (702) 
/opt/xchem-fragalysis-2/maxwin/BulkDock/SCRATCH/505736/C2807-P184

>  <fragmenstein_runtime>  (702) 
5.231523036956787

>  <fragmenstein_outcome>  (702) 
too moved

>  <fragmenstein_mode>  (702) 
expansion

>  <fragmenstein_error>  (702) 


$$$$
C2807-P12
     RDKit          3D

 57 61  0  0  0  0  0  0  0  0999 V2000
   16.9827   -4.1981   15.2097 C   0  0  0  0  0  0  0  0  0  0  0  0
   17.3126   -2.7402   14.9833 C   0  0  0  0  0  0  0  0  0  0  0  0
   17.8974   -2.3414   14.0447 O   0  0  0  0  0  0  0  0  0  0  0  0
   16.8311   -2.0094   16.2242 N   0  0  0  0  0  0  0  0  0  0  0  0
   17.0438   -0.6050   16.6636 C   0  0  0  0  0  0  0  0  0  0  0  0
   16.3762    0.5695   16.0349 C   0  0  0  0  0  0  0  0  0  0  0  0
   16.6739    1.8836   16.6977 C   0  0  0  0  0  0  0  0  0  0  0  0
   15.8889    2.8082   16.8319 O   0  0  0  0  0  0  0  0  0  0  0  0
   17.9518    2.0234   17.0914 O   0  0  0  0  0  0  0  0  0  0  0  0
   15.0479    0.0565   16.3936 C   0  0  0  0  0  0  0  0  0  0  0  0
   15.2759   -1.4059   16.0102 C   0  0  0  0  0  0  0  0  0  0  0  0
   14.7908   -1.5376   14.4972 C   0  0  0  0  0  0  0  0  0  0  0  0
   13.3066   -1.2147   14.2388 C   0  0  0  0  0  0  0  0  0  0  0  0
   12.3592   -1.9360   15.1779 C   0  0  0  0  0  0  0  0  0  0  0  0
   12.8258   -1.9211   16.6249 C   0  0  0  0  0  0  0  0  0  0  0  0
   14.2859   -2.3616   16.7784 C   0  0  0  0  0  0  0  0  0  0  0  0
   14.6441   -2.6430   18.2051 C   0  0  0  0  0  0  0  0  0  0  0  0
   15.0482   -1.6986   19.1202 N   0  0  0  0  0  0  0  0  0  0  0  0
   15.4020   -2.4279   20.1566 C   0  0  0  0  0  0  0  0  0  0  0  0
   16.1725   -1.9387   21.6271 S   0  0  0  0  0  0  0  0  0  0  0  0
   16.2950   -0.2308   21.3889 C   0  0  0  0  0  0  0  0  0  0  0  0
   17.4163    0.3164   20.8739 C   0  0  0  0  0  0  0  0  0  0  0  0
   17.5376    1.7647   20.7863 C   0  0  0  0  0  0  0  0  0  0  0  0
   16.5524    2.5789   21.2091 C   0  0  0  0  0  0  0  0  0  0  0  0
   15.3680    2.0177   21.7548 C   0  0  0  0  0  0  0  0  0  0  0  0
   14.2750    2.5609   22.2452 N   0  0  0  0  0  0  0  0  0  0  0  0
   13.4625    1.5435   22.6860 N   0  0  0  0  0  0  0  0  0  0  0  0
   14.0886    0.4093   22.4640 C   0  0  0  0  0  0  0  0  0  0  0  0
   15.2852    0.6333   21.8381 N   0  0  0  0  0  0  0  0  0  0  0  0
   15.1389   -3.7445   19.9009 N   0  0  0  0  0  0  0  0  0  0  0  0
   15.4111   -4.9023   20.7121 C   0  0  0  0  0  0  0  0  0  0  0  0
   14.6373   -3.9018   18.6652 N   0  0  0  0  0  0  0  0  0  0  0  0
   17.5119   -4.8064   14.4717 H   0  0  0  0  0  0  0  0  0  0  0  0
   15.9152   -4.3783   15.1359 H   0  0  0  0  0  0  0  0  0  0  0  0
   17.3300   -4.5076   16.2007 H   0  0  0  0  0  0  0  0  0  0  0  0
   16.9742   -0.6014   17.7632 H   0  0  0  0  0  0  0  0  0  0  0  0
   18.1230   -0.4742   16.4920 H   0  0  0  0  0  0  0  0  0  0  0  0
   16.5681    0.6509   14.9613 H   0  0  0  0  0  0  0  0  0  0  0  0
   17.9938    2.9457   17.4226 H   0  0  0  0  0  0  0  0  0  0  0  0
   14.8250    0.1928   17.4599 H   0  0  0  0  0  0  0  0  0  0  0  0
   14.2553    0.5850   15.8615 H   0  0  0  0  0  0  0  0  0  0  0  0
   14.9667   -2.5513   14.1369 H   0  0  0  0  0  0  0  0  0  0  0  0
   15.4015   -0.8974   13.8493 H   0  0  0  0  0  0  0  0  0  0  0  0
   13.0627   -1.4871   13.2051 H   0  0  0  0  0  0  0  0  0  0  0  0
   13.1337   -0.1354   14.3006 H   0  0  0  0  0  0  0  0  0  0  0  0
   12.2631   -2.9786   14.8518 H   0  0  0  0  0  0  0  0  0  0  0  0
   11.3554   -1.5018   15.1037 H   0  0  0  0  0  0  0  0  0  0  0  0
   12.1896   -2.6148   17.1809 H   0  0  0  0  0  0  0  0  0  0  0  0
   12.6703   -0.9250   17.0502 H   0  0  0  0  0  0  0  0  0  0  0  0
   14.3536   -3.3404   16.2812 H   0  0  0  0  0  0  0  0  0  0  0  0
   18.2573   -0.2827   20.5368 H   0  0  0  0  0  0  0  0  0  0  0  0
   18.4552    2.1707   20.3710 H   0  0  0  0  0  0  0  0  0  0  0  0
   16.6343    3.6585   21.1482 H   0  0  0  0  0  0  0  0  0  0  0  0
   13.7350   -0.5719   22.7389 H   0  0  0  0  0  0  0  0  0  0  0  0
   15.0877   -4.7086   21.7377 H   0  0  0  0  0  0  0  0  0  0  0  0
   16.4840   -5.1066   20.6742 H   0  0  0  0  0  0  0  0  0  0  0  0
   14.8547   -5.7596   20.3268 H   0  0  0  0  0  0  0  0  0  0  0  0
  1  2  1  0
  2  3  2  0
  2  4  1  0
  4  5  1  0
  5  6  1  0
  6  7  1  0
  7  8  2  0
  7  9  1  0
  6 10  1  0
 10 11  1  0
 11 12  1  0
 12 13  1  0
 13 14  1  0
 14 15  1  0
 15 16  1  0
 16 17  1  0
 17 18  1  0
 18 19  2  0
 19 20  1  0
 20 21  1  0
 21 22  2  0
 22 23  1  0
 23 24  2  0
 24 25  1  0
 25 26  2  0
 26 27  1  0
 27 28  2  0
 28 29  1  0
 19 30  1  0
 30 31  1  0
 30 32  1  0
 11  4  1  0
 32 17  2  0
 16 11  1  0
 29 21  1  0
 29 25  1  0
  1 33  1  0
  1 34  1  0
  1 35  1  0
  5 36  1  0
  5 37  1  0
  6 38  1  0
  9 39  1  0
 10 40  1  0
 10 41  1  0
 12 42  1  0
 12 43  1  0
 13 44  1  0
 13 45  1  0
 14 46  1  0
 14 47  1  0
 15 48  1  0
 15 49  1  0
 16 50  1  0
 22 51  1  0
 23 52  1  0
 24 53  1  0
 28 54  1  0
 31 55  1  0
 31 56  1  0
 31 57  1  0
M  END
>  <Energy>  (703) 
116.39796970072615

>  <compound_id>  (703) 
2807

>  <target_id>  (703) 
1

>  <reference_id>  (703) 
12

>  <inspiration_ids>  (703) 
[184, 12]

>  <energy_score>  (703) 
2.278372612584434

>  <distance_score>  (703) 
2.696661172735276

>  <path>  (703) 
/opt/xchem-fragalysis-2/maxwin/BulkDock/SCRATCH/505736/C2807-P12/C2807-P12.minimised.mol

>  <scratch_subdir>  (703) 
/opt/xchem-fragalysis-2/maxwin/BulkDock/SCRATCH/505736/C2807-P12

>  <fragmenstein_runtime>  (703) 
3.1589858531951904

>  <fragmenstein_outcome>  (703) 
too moved

>  <fragmenstein_mode>  (703) 
expansion

>  <fragmenstein_error>  (703) 


$$$$
C2234-P184
     RDKit          3D

 55 57  0  0  0  0  0  0  0  0999 V2000
   13.7114   -4.6189   19.8739 C   0  0  0  0  0  0  0  0  0  0  0  0
   14.2889   -4.0376   18.6791 N   0  0  0  0  0  0  0  0  0  0  0  0
   13.9462   -2.6305   18.4237 C   0  0  0  0  0  0  0  0  0  0  0  0
   14.3923   -1.7047   19.5786 C   0  0  0  0  0  0  0  0  0  0  0  0
   15.8951   -1.4832   19.5115 C   0  0  0  0  0  0  0  0  0  0  0  0
   16.7989   -2.2002   20.8700 S   0  0  0  0  0  0  0  0  0  0  0  0
   18.2078   -2.1912   20.5340 O   0  0  0  0  0  0  0  0  0  0  0  0
   16.1731   -3.3835   21.4064 O   0  0  0  0  0  0  0  0  0  0  0  0
   16.6564   -0.9777   22.0479 N   0  0  0  0  0  0  0  0  0  0  0  0
   15.3840   -0.8505   22.8214 C   0  0  0  0  0  0  0  0  0  0  0  0
   14.4911    0.2809   22.3409 C   0  0  0  0  0  0  0  0  0  0  0  0
   15.1824    1.6125   22.2526 C   0  0  0  0  0  0  0  0  0  0  0  0
   14.5676    2.6942   22.6045 N   0  0  0  0  0  0  0  0  0  0  0  0
   15.2707    3.8593   22.4617 C   0  0  0  0  0  0  0  0  0  0  0  0
   16.5220    3.9619   22.0029 C   0  0  0  0  0  0  0  0  0  0  0  0
   17.2099    2.7282   21.6150 C   0  0  0  0  0  0  0  0  0  0  0  0
   18.3729    2.7239   21.2368 O   0  0  0  0  0  0  0  0  0  0  0  0
   16.4467    1.6089   21.7219 N   0  0  0  0  0  0  0  0  0  0  0  0
   16.3521   -1.8995   17.8563 S   0  0  0  0  0  4  0  0  0  0  0  0
   16.7888   -3.4633   18.0466 O   0  0  0  0  0  0  0  0  0  0  0  0
   14.6743   -2.0117   17.1770 C   0  0  0  0  0  0  0  0  0  0  0  0
   14.5849   -2.8750   15.9288 C   0  0  0  0  0  0  0  0  0  0  0  0
   13.7062   -2.3547   14.7770 C   0  0  0  0  0  0  0  0  0  0  0  0
   12.4199   -1.7786   15.3169 C   0  0  0  0  0  0  0  0  0  0  0  0
   11.7390   -2.7666   16.0876 O   0  0  0  0  0  0  0  0  0  0  0  0
   12.7394   -0.5854   16.2104 C   0  0  0  0  0  0  0  0  0  0  0  0
   14.1647   -0.5946   16.7878 C   0  0  0  0  0  0  0  0  0  0  0  0
   14.2905   -5.5086   20.1325 H   0  0  0  0  0  0  0  0  0  0  0  0
   12.6856   -4.9342   19.6913 H   0  0  0  0  0  0  0  0  0  0  0  0
   13.7211   -3.9878   20.7619 H   0  0  0  0  0  0  0  0  0  0  0  0
   15.3110   -4.1482   18.6763 H   0  0  0  0  0  0  0  0  0  0  0  0
   12.8807   -2.6153   18.2281 H   0  0  0  0  0  0  0  0  0  0  0  0
   14.0529   -2.0401   20.5579 H   0  0  0  0  0  0  0  0  0  0  0  0
   13.9189   -0.7288   19.4405 H   0  0  0  0  0  0  0  0  0  0  0  0
   16.1148   -0.4098   19.5659 H   0  0  0  0  0  0  0  0  0  0  0  0
   17.4729   -1.0892   22.6649 H   0  0  0  0  0  0  0  0  0  0  0  0
   15.6721   -0.6592   23.8630 H   0  0  0  0  0  0  0  0  0  0  0  0
   14.8316   -1.7946   22.8308 H   0  0  0  0  0  0  0  0  0  0  0  0
   13.6393    0.3748   23.0253 H   0  0  0  0  0  0  0  0  0  0  0  0
   14.0758    0.0851   21.3571 H   0  0  0  0  0  0  0  0  0  0  0  0
   14.7404    4.7598   22.7635 H   0  0  0  0  0  0  0  0  0  0  0  0
   17.0530    4.8983   21.9134 H   0  0  0  0  0  0  0  0  0  0  0  0
   16.9127    0.7272   21.5386 H   0  0  0  0  0  0  0  0  0  0  0  0
   17.2522   -1.1117   17.2226 H   0  0  0  0  0  0  0  0  0  0  0  0
   17.7617   -3.6381   18.1621 H   0  0  0  0  0  0  0  0  0  0  0  0
   14.1387   -3.8029   16.2787 H   0  0  0  0  0  0  0  0  0  0  0  0
   15.5811   -3.1010   15.5320 H   0  0  0  0  0  0  0  0  0  0  0  0
   14.2530   -1.5979   14.2010 H   0  0  0  0  0  0  0  0  0  0  0  0
   13.4820   -3.1661   14.0789 H   0  0  0  0  0  0  0  0  0  0  0  0
   11.7485   -1.4734   14.5075 H   0  0  0  0  0  0  0  0  0  0  0  0
   11.6157   -3.5575   15.5302 H   0  0  0  0  0  0  0  0  0  0  0  0
   12.6184    0.3431   15.6394 H   0  0  0  0  0  0  0  0  0  0  0  0
   12.0156   -0.5595   17.0188 H   0  0  0  0  0  0  0  0  0  0  0  0
   14.8485   -0.1833   16.0307 H   0  0  0  0  0  0  0  0  0  0  0  0
   14.2251    0.1256   17.6091 H   0  0  0  0  0  0  0  0  0  0  0  0
  1  2  1  0
  2  3  1  0
  3  4  1  0
  4  5  1  0
  5  6  1  0
  6  7  2  0
  6  8  2  0
  6  9  1  0
  9 10  1  0
 10 11  1  0
 11 12  1  0
 12 13  2  0
 13 14  1  0
 14 15  2  0
 15 16  1  0
 16 17  2  0
 16 18  1  0
  5 19  1  0
 19 20  1  0
 19 21  1  0
 21 22  1  0
 22 23  1  0
 23 24  1  0
 24 25  1  0
 24 26  1  0
 26 27  1  0
 21  3  1  0
 18 12  1  0
 27 21  1  0
  1 28  1  0
  1 29  1  0
  1 30  1  0
  2 31  1  0
  3 32  1  0
  4 33  1  0
  4 34  1  0
  5 35  1  0
  9 36  1  0
 10 37  1  0
 10 38  1  0
 11 39  1  0
 11 40  1  0
 14 41  1  0
 15 42  1  0
 18 43  1  0
 19 44  1  0
 20 45  1  0
 22 46  1  0
 22 47  1  0
 23 48  1  0
 23 49  1  0
 24 50  1  0
 25 51  1  0
 26 52  1  0
 26 53  1  0
 27 54  1  0
 27 55  1  0
M  END
>  <Energy>  (704) 
-14.849138719768163

>  <compound_id>  (704) 
2234

>  <target_id>  (704) 
1

>  <reference_id>  (704) 
184

>  <inspiration_ids>  (704) 
[184, 63]

>  <energy_score>  (704) 
-82.34243763601887

>  <distance_score>  (704) 
1.7596439133044246

>  <path>  (704) 
/opt/xchem-fragalysis-2/maxwin/BulkDock/SCRATCH/505736/C2234-P184/C2234-P184.minimised.mol

>  <scratch_subdir>  (704) 
/opt/xchem-fragalysis-2/maxwin/BulkDock/SCRATCH/505736/C2234-P184

>  <fragmenstein_runtime>  (704) 
27.290515899658203

>  <fragmenstein_outcome>  (704) 
too moved

>  <fragmenstein_mode>  (704) 
expansion

>  <fragmenstein_error>  (704) 


$$$$
C2234-P63
     RDKit          3D

 55 57  0  0  0  0  0  0  0  0999 V2000
   12.6399   -4.4331   16.8484 C   0  0  0  0  0  0  0  0  0  0  0  0
   12.8686   -3.4988   17.9314 N   0  0  0  0  0  0  0  0  0  0  0  0
   14.2604   -3.1910   18.1086 C   0  0  0  0  0  0  0  0  0  0  0  0
   14.5416   -2.7984   19.5953 C   0  0  0  0  0  0  0  0  0  0  0  0
   15.7015   -1.8048   19.6489 C   0  0  0  0  0  0  0  0  0  0  0  0
   16.7611   -1.9521   21.0577 S   0  0  0  0  0  0  0  0  0  0  0  0
   17.6197   -0.7914   21.1342 O   0  0  0  0  0  0  0  0  0  0  0  0
   17.3205   -3.2859   21.0956 O   0  0  0  0  0  0  0  0  0  0  0  0
   15.7171   -1.8403   22.3481 N   0  0  0  0  0  0  0  0  0  0  0  0
   14.6717   -0.8054   22.4482 C   0  0  0  0  0  0  0  0  0  0  0  0
   15.0968    0.3430   23.3224 C   0  0  0  0  0  0  0  0  0  0  0  0
   15.4716    1.5246   22.4832 C   0  0  0  0  0  0  0  0  0  0  0  0
   14.6059    2.4614   22.2659 N   0  0  0  0  0  0  0  0  0  0  0  0
   15.0378    3.5163   21.5128 C   0  0  0  0  0  0  0  0  0  0  0  0
   16.2597    3.6405   20.9882 C   0  0  0  0  0  0  0  0  0  0  0  0
   17.2132    2.5463   21.1977 C   0  0  0  0  0  0  0  0  0  0  0  0
   18.3226    2.5675   20.6817 O   0  0  0  0  0  0  0  0  0  0  0  0
   16.7458    1.5351   21.9806 N   0  0  0  0  0  0  0  0  0  0  0  0
   16.4300   -1.8938   18.0663 S   0  0  0  0  0  4  0  0  0  0  0  0
   16.9997   -3.4272   18.1122 O   0  0  0  0  0  0  0  0  0  0  0  0
   14.8521   -2.0839   17.1714 C   0  0  0  0  0  0  0  0  0  0  0  0
   15.1085   -2.4734   15.7033 C   0  0  0  0  0  0  0  0  0  0  0  0
   14.3077   -1.7003   14.6379 C   0  0  0  0  0  0  0  0  0  0  0  0
   12.8840   -1.3287   15.0077 C   0  0  0  0  0  0  0  0  0  0  0  0
   12.0288   -2.4602   14.9471 O   0  0  0  0  0  0  0  0  0  0  0  0
   12.7898   -0.7017   16.3873 C   0  0  0  0  0  0  0  0  0  0  0  0
   14.0867   -0.7319   17.1947 C   0  0  0  0  0  0  0  0  0  0  0  0
   13.1132   -4.1380   15.9262 H   0  0  0  0  0  0  0  0  0  0  0  0
   11.5719   -4.5196   16.6518 H   0  0  0  0  0  0  0  0  0  0  0  0
   13.0376   -5.4121   17.0907 H   0  0  0  0  0  0  0  0  0  0  0  0
   12.4400   -3.8907   18.7757 H   0  0  0  0  0  0  0  0  0  0  0  0
   14.8146   -4.1267   17.9474 H   0  0  0  0  0  0  0  0  0  0  0  0
   14.7701   -3.7150   20.1545 H   0  0  0  0  0  0  0  0  0  0  0  0
   13.6738   -2.3700   20.0971 H   0  0  0  0  0  0  0  0  0  0  0  0
   15.3273   -0.7777   19.6945 H   0  0  0  0  0  0  0  0  0  0  0  0
   15.4386   -2.7617   22.6956 H   0  0  0  0  0  0  0  0  0  0  0  0
   13.8352   -1.3051   22.9490 H   0  0  0  0  0  0  0  0  0  0  0  0
   14.2964   -0.4799   21.4777 H   0  0  0  0  0  0  0  0  0  0  0  0
   14.2631    0.6460   23.9679 H   0  0  0  0  0  0  0  0  0  0  0  0
   15.9354    0.0756   23.9755 H   0  0  0  0  0  0  0  0  0  0  0  0
   14.3058    4.3048   21.3543 H   0  0  0  0  0  0  0  0  0  0  0  0
   16.5740    4.4883   20.3973 H   0  0  0  0  0  0  0  0  0  0  0  0
   17.3584    0.7238   22.0530 H   0  0  0  0  0  0  0  0  0  0  0  0
   17.3013   -0.9338   17.6758 H   0  0  0  0  0  0  0  0  0  0  0  0
   17.7436   -3.6231   18.7443 H   0  0  0  0  0  0  0  0  0  0  0  0
   15.0064   -3.5516   15.5771 H   0  0  0  0  0  0  0  0  0  0  0  0
   16.1665   -2.2974   15.4621 H   0  0  0  0  0  0  0  0  0  0  0  0
   14.3254   -2.2560   13.6949 H   0  0  0  0  0  0  0  0  0  0  0  0
   14.8533   -0.7675   14.4371 H   0  0  0  0  0  0  0  0  0  0  0  0
   12.5055   -0.6107   14.2690 H   0  0  0  0  0  0  0  0  0  0  0  0
   11.4455   -2.3577   14.1687 H   0  0  0  0  0  0  0  0  0  0  0  0
   11.9833   -1.1729   16.9478 H   0  0  0  0  0  0  0  0  0  0  0  0
   12.4986    0.3509   16.2770 H   0  0  0  0  0  0  0  0  0  0  0  0
   13.8534   -0.4125   18.2141 H   0  0  0  0  0  0  0  0  0  0  0  0
   14.7545    0.0495   16.8044 H   0  0  0  0  0  0  0  0  0  0  0  0
  1  2  1  0
  2  3  1  0
  3  4  1  0
  4  5  1  0
  5  6  1  0
  6  7  2  0
  6  8  2  0
  6  9  1  0
  9 10  1  0
 10 11  1  0
 11 12  1  0
 12 13  2  0
 13 14  1  0
 14 15  2  0
 15 16  1  0
 16 17  2  0
 16 18  1  0
  5 19  1  0
 19 20  1  0
 19 21  1  0
 21 22  1  0
 22 23  1  0
 23 24  1  0
 24 25  1  0
 24 26  1  0
 26 27  1  0
 21  3  1  0
 18 12  1  0
 27 21  1  0
  1 28  1  0
  1 29  1  0
  1 30  1  0
  2 31  1  0
  3 32  1  0
  4 33  1  0
  4 34  1  0
  5 35  1  0
  9 36  1  0
 10 37  1  0
 10 38  1  0
 11 39  1  0
 11 40  1  0
 14 41  1  0
 15 42  1  0
 18 43  1  0
 19 44  1  0
 20 45  1  0
 22 46  1  0
 22 47  1  0
 23 48  1  0
 23 49  1  0
 24 50  1  0
 25 51  1  0
 26 52  1  0
 26 53  1  0
 27 54  1  0
 27 55  1  0
M  END
>  <Energy>  (705) 
-15.684619107656827

>  <compound_id>  (705) 
2234

>  <target_id>  (705) 
1

>  <reference_id>  (705) 
63

>  <inspiration_ids>  (705) 
[184, 63]

>  <energy_score>  (705) 
-83.17791802390906

>  <distance_score>  (705) 
1.9541925830819669

>  <path>  (705) 
/opt/xchem-fragalysis-2/maxwin/BulkDock/SCRATCH/505736/C2234-P63/C2234-P63.minimised.mol

>  <scratch_subdir>  (705) 
/opt/xchem-fragalysis-2/maxwin/BulkDock/SCRATCH/505736/C2234-P63

>  <fragmenstein_runtime>  (705) 
26.953149795532227

>  <fragmenstein_outcome>  (705) 
too moved

>  <fragmenstein_mode>  (705) 
expansion

>  <fragmenstein_error>  (705) 


$$$$
C436-P184
     RDKit          3D

 60 63  0  0  0  0  0  0  0  0999 V2000
   14.1826    2.1167   22.8993 C   0  0  0  0  0  0  0  0  0  0  0  0
   15.3085    1.6754   22.0153 C   0  0  0  0  0  0  0  0  0  0  0  0
   16.4235    2.4892   21.8455 C   0  0  0  0  0  0  0  0  0  0  0  0
   17.4221    2.0737   20.9732 C   0  0  0  0  0  0  0  0  0  0  0  0
   17.2691    0.8746   20.2844 C   0  0  0  0  0  0  0  0  0  0  0  0
   16.1331    0.1181   20.5196 C   0  0  0  0  0  0  0  0  0  0  0  0
   15.9319   -1.0944   19.8987 N   0  0  0  0  0  0  0  0  0  0  0  0
   16.6719   -1.7493   18.6970 C   0  0  0  0  0  0  0  0  0  0  0  0
   17.5145   -1.3253   18.0023 O   0  0  0  0  0  0  0  0  0  0  0  0
   16.2086   -3.2244   18.5496 C   0  0  0  0  0  0  0  0  0  0  0  0
   16.0303   -4.0816   19.8008 C   0  0  0  0  0  0  0  0  0  0  0  0
   15.0577   -5.1610   19.3646 C   0  0  0  0  0  0  0  0  0  0  0  0
   14.8693   -4.9528   17.8645 C   0  0  0  0  0  0  0  0  0  0  0  0
   15.0475   -3.5037   17.6450 N   0  0  0  0  0  0  0  0  0  0  0  0
   13.7937   -2.8202   17.9680 C   0  0  0  0  0  0  0  0  0  0  0  0
   13.1723   -2.1670   16.7743 C   0  0  0  0  0  0  0  0  0  0  0  0
   12.1847   -2.6146   15.9172 C   0  0  0  0  0  0  0  0  0  0  0  0
   11.6863   -1.5594   15.0919 C   0  0  0  0  0  0  0  0  0  0  0  0
   12.3264   -0.3599   15.3422 C   0  0  0  0  0  0  0  0  0  0  0  0
   12.0462    1.3006   14.7910 S   0  0  0  0  0  0  0  0  0  0  0  0
   10.6542    1.3149   14.4009 O   0  0  0  0  0  0  0  0  0  0  0  0
   12.5298    2.1683   15.8428 O   0  0  0  0  0  0  0  0  0  0  0  0
   13.0228    1.5675   13.4502 N   0  0  0  0  0  0  0  0  0  0  0  0
   12.5517    1.1208   12.1315 C   0  0  0  0  0  0  0  0  0  0  0  0
   12.7015    2.2611   11.1271 C   0  0  0  0  0  0  0  0  0  0  0  0
   11.9493    3.5097   11.5477 C   0  0  0  0  0  0  0  0  0  0  0  0
   10.7736    3.4533   12.0979 N   0  0  0  0  0  0  0  0  0  0  0  0
   10.2508    4.6406   12.5476 C   0  0  0  0  0  0  0  0  0  0  0  0
   10.7987    5.8440   12.3618 C   0  0  0  0  0  0  0  0  0  0  0  0
   12.0668    5.9033   11.6257 C   0  0  0  0  0  0  0  0  0  0  0  0
   12.5986    6.9713   11.3526 O   0  0  0  0  0  0  0  0  0  0  0  0
   12.5919    4.6925   11.2855 N   0  0  0  0  0  0  0  0  0  0  0  0
   13.6315   -0.5612   16.4153 S   0  0  0  0  0  0  0  0  0  0  0  0
   15.1686    0.4849   21.3851 N   0  0  0  0  0  0  0  0  0  0  0  0
   13.3980    1.3540   22.9416 H   0  0  0  0  0  0  0  0  0  0  0  0
   14.5446    2.2889   23.9176 H   0  0  0  0  0  0  0  0  0  0  0  0
   13.7390    3.0399   22.5136 H   0  0  0  0  0  0  0  0  0  0  0  0
   16.5108    3.4342   22.3715 H   0  0  0  0  0  0  0  0  0  0  0  0
   18.3047    2.6864   20.8136 H   0  0  0  0  0  0  0  0  0  0  0  0
   18.0357    0.5489   19.5903 H   0  0  0  0  0  0  0  0  0  0  0  0
   15.2043   -1.7098   20.2215 H   0  0  0  0  0  0  0  0  0  0  0  0
   17.0698   -3.6747   18.0256 H   0  0  0  0  0  0  0  0  0  0  0  0
   16.9884   -4.5218   20.1006 H   0  0  0  0  0  0  0  0  0  0  0  0
   15.6351   -3.5580   20.6739 H   0  0  0  0  0  0  0  0  0  0  0  0
   14.1071   -5.0380   19.8966 H   0  0  0  0  0  0  0  0  0  0  0  0
   15.4426   -6.1607   19.5887 H   0  0  0  0  0  0  0  0  0  0  0  0
   13.9106   -5.3342   17.4990 H   0  0  0  0  0  0  0  0  0  0  0  0
   15.6496   -5.4954   17.3152 H   0  0  0  0  0  0  0  0  0  0  0  0
   13.0501   -3.4970   18.4076 H   0  0  0  0  0  0  0  0  0  0  0  0
   13.9468   -2.0581   18.7303 H   0  0  0  0  0  0  0  0  0  0  0  0
   11.7764   -3.6189   15.9415 H   0  0  0  0  0  0  0  0  0  0  0  0
   10.8535   -1.6535   14.4028 H   0  0  0  0  0  0  0  0  0  0  0  0
   14.0154    1.4495   13.6527 H   0  0  0  0  0  0  0  0  0  0  0  0
   13.1639    0.2691   11.8192 H   0  0  0  0  0  0  0  0  0  0  0  0
   11.5108    0.7875   12.1586 H   0  0  0  0  0  0  0  0  0  0  0  0
   12.3181    1.9432   10.1519 H   0  0  0  0  0  0  0  0  0  0  0  0
   13.7635    2.5015   10.9972 H   0  0  0  0  0  0  0  0  0  0  0  0
    9.3196    4.5619   13.1035 H   0  0  0  0  0  0  0  0  0  0  0  0
   10.3687    6.7661   12.7244 H   0  0  0  0  0  0  0  0  0  0  0  0
   13.4644    4.7199   10.7779 H   0  0  0  0  0  0  0  0  0  0  0  0
  1  2  1  0
  2  3  2  0
  3  4  1  0
  4  5  2  0
  5  6  1  0
  6  7  1  0
  7  8  1  0
  8  9  2  0
  8 10  1  0
 10 11  1  0
 11 12  1  0
 12 13  1  0
 13 14  1  0
 14 15  1  0
 15 16  1  0
 16 17  2  0
 17 18  1  0
 18 19  2  0
 19 20  1  0
 20 21  2  0
 20 22  2  0
 20 23  1  0
 23 24  1  0
 24 25  1  0
 25 26  1  0
 26 27  2  0
 27 28  1  0
 28 29  2  0
 29 30  1  0
 30 31  2  0
 30 32  1  0
 19 33  1  0
  6 34  2  0
 34  2  1  0
 14 10  1  0
 33 16  1  0
 32 26  1  0
  1 35  1  0
  1 36  1  0
  1 37  1  0
  3 38  1  0
  4 39  1  0
  5 40  1  0
  7 41  1  0
 10 42  1  0
 11 43  1  0
 11 44  1  0
 12 45  1  0
 12 46  1  0
 13 47  1  0
 13 48  1  0
 15 49  1  0
 15 50  1  0
 17 51  1  0
 18 52  1  0
 23 53  1  0
 24 54  1  0
 24 55  1  0
 25 56  1  0
 25 57  1  0
 28 58  1  0
 29 59  1  0
 32 60  1  0
M  END
>  <Energy>  (706) 
-43.698310235436111

>  <compound_id>  (706) 
436

>  <target_id>  (706) 
1

>  <reference_id>  (706) 
184

>  <inspiration_ids>  (706) 
[184, 66]

>  <energy_score>  (706) 
-50.73444806626861

>  <distance_score>  (706) 
1.351401337563847

>  <path>  (706) 
/opt/xchem-fragalysis-2/maxwin/BulkDock/SCRATCH/505736/C436-P184/C436-P184.minimised.mol

>  <scratch_subdir>  (706) 
/opt/xchem-fragalysis-2/maxwin/BulkDock/SCRATCH/505736/C436-P184

>  <fragmenstein_runtime>  (706) 
6.62044882774353

>  <fragmenstein_outcome>  (706) 
too moved

>  <fragmenstein_mode>  (706) 
expansion

>  <fragmenstein_error>  (706) 


$$$$
C436-P66
     RDKit          3D

 60 63  0  0  0  0  0  0  0  0999 V2000
   14.0916    2.0204   22.5335 C   0  0  0  0  0  0  0  0  0  0  0  0
   15.4451    1.7414   21.9542 C   0  0  0  0  0  0  0  0  0  0  0  0
   16.5419    2.5134   22.3166 C   0  0  0  0  0  0  0  0  0  0  0  0
   17.7785    2.2151   21.7556 C   0  0  0  0  0  0  0  0  0  0  0  0
   17.8814    1.1582   20.8553 C   0  0  0  0  0  0  0  0  0  0  0  0
   16.7390    0.4325   20.5472 C   0  0  0  0  0  0  0  0  0  0  0  0
   16.8462   -0.6122   19.6470 N   0  0  0  0  0  0  0  0  0  0  0  0
   15.8636   -1.5663   19.1804 C   0  0  0  0  0  0  0  0  0  0  0  0
   14.7276   -1.7443   19.5132 O   0  0  0  0  0  0  0  0  0  0  0  0
   16.4980   -2.4078   18.0435 C   0  0  0  0  0  0  0  0  0  0  0  0
   17.6067   -3.3328   18.5564 C   0  0  0  0  0  0  0  0  0  0  0  0
   17.4606   -4.6239   17.7525 C   0  0  0  0  0  0  0  0  0  0  0  0
   16.4149   -4.3099   16.6961 C   0  0  0  0  0  0  0  0  0  0  0  0
   15.5772   -3.3680   17.4129 N   0  0  0  0  0  0  0  0  0  0  0  0
   14.4372   -2.8379   16.6761 C   0  0  0  0  0  0  0  0  0  0  0  0
   14.7348   -1.7815   15.6484 C   0  0  0  0  0  0  0  0  0  0  0  0
   15.2335   -1.9082   14.3667 C   0  0  0  0  0  0  0  0  0  0  0  0
   15.1995   -0.6805   13.6431 C   0  0  0  0  0  0  0  0  0  0  0  0
   14.7393    0.3631   14.4161 C   0  0  0  0  0  0  0  0  0  0  0  0
   14.4492    2.0687   14.0860 S   0  0  0  0  0  0  0  0  0  0  0  0
   13.0310    2.2069   13.8244 O   0  0  0  0  0  0  0  0  0  0  0  0
   15.1236    2.8169   15.1217 O   0  0  0  0  0  0  0  0  0  0  0  0
   15.2717    2.4607   12.6561 N   0  0  0  0  0  0  0  0  0  0  0  0
   14.6025    3.4194   11.7388 C   0  0  0  0  0  0  0  0  0  0  0  0
   14.3158    4.7685   12.3943 C   0  0  0  0  0  0  0  0  0  0  0  0
   12.8944    5.2266   12.1577 C   0  0  0  0  0  0  0  0  0  0  0  0
   12.6755    6.3524   11.5556 N   0  0  0  0  0  0  0  0  0  0  0  0
   11.3699    6.7405   11.4243 C   0  0  0  0  0  0  0  0  0  0  0  0
   10.3153    6.0094   11.7929 C   0  0  0  0  0  0  0  0  0  0  0  0
   10.5793    4.6766   12.3546 C   0  0  0  0  0  0  0  0  0  0  0  0
    9.6734    3.8628   12.5097 O   0  0  0  0  0  0  0  0  0  0  0  0
   11.8910    4.4174   12.6208 N   0  0  0  0  0  0  0  0  0  0  0  0
   14.4030   -0.1407   16.0043 S   0  0  0  0  0  0  0  0  0  0  0  0
   15.5389    0.7175   21.0769 N   0  0  0  0  0  0  0  0  0  0  0  0
   13.3466    1.3209   22.1400 H   0  0  0  0  0  0  0  0  0  0  0  0
   14.1171    1.9139   23.6224 H   0  0  0  0  0  0  0  0  0  0  0  0
   13.7732    3.0359   22.2783 H   0  0  0  0  0  0  0  0  0  0  0  0
   16.4379    3.3299   23.0233 H   0  0  0  0  0  0  0  0  0  0  0  0
   18.6546    2.7998   22.0198 H   0  0  0  0  0  0  0  0  0  0  0  0
   18.8418    0.9169   20.4156 H   0  0  0  0  0  0  0  0  0  0  0  0
   17.7285   -0.8027   19.1996 H   0  0  0  0  0  0  0  0  0  0  0  0
   16.9170   -1.7233   17.2940 H   0  0  0  0  0  0  0  0  0  0  0  0
   17.5217   -3.5427   19.6289 H   0  0  0  0  0  0  0  0  0  0  0  0
   18.5919   -2.8852   18.3825 H   0  0  0  0  0  0  0  0  0  0  0  0
   18.4097   -4.9397   17.3085 H   0  0  0  0  0  0  0  0  0  0  0  0
   17.1123   -5.4300   18.4101 H   0  0  0  0  0  0  0  0  0  0  0  0
   15.8784   -5.2076   16.3844 H   0  0  0  0  0  0  0  0  0  0  0  0
   16.8902   -3.8622   15.8160 H   0  0  0  0  0  0  0  0  0  0  0  0
   13.9162   -3.6680   16.1818 H   0  0  0  0  0  0  0  0  0  0  0  0
   13.6951   -2.4589   17.3858 H   0  0  0  0  0  0  0  0  0  0  0  0
   15.5692   -2.8452   13.9408 H   0  0  0  0  0  0  0  0  0  0  0  0
   15.4918   -0.5702   12.6057 H   0  0  0  0  0  0  0  0  0  0  0  0
   16.2244    2.7453   12.8985 H   0  0  0  0  0  0  0  0  0  0  0  0
   15.2859    3.5759   10.8951 H   0  0  0  0  0  0  0  0  0  0  0  0
   13.7111    2.9412   11.3182 H   0  0  0  0  0  0  0  0  0  0  0  0
   14.9968    5.5211   11.9776 H   0  0  0  0  0  0  0  0  0  0  0  0
   14.4841    4.7714   13.4750 H   0  0  0  0  0  0  0  0  0  0  0  0
   11.2185    7.7261   10.9903 H   0  0  0  0  0  0  0  0  0  0  0  0
    9.2932    6.3373   11.6797 H   0  0  0  0  0  0  0  0  0  0  0  0
   12.0969    3.5145   13.0489 H   0  0  0  0  0  0  0  0  0  0  0  0
  1  2  1  0
  2  3  2  0
  3  4  1  0
  4  5  2  0
  5  6  1  0
  6  7  1  0
  7  8  1  0
  8  9  2  0
  8 10  1  0
 10 11  1  0
 11 12  1  0
 12 13  1  0
 13 14  1  0
 14 15  1  0
 15 16  1  0
 16 17  2  0
 17 18  1  0
 18 19  2  0
 19 20  1  0
 20 21  2  0
 20 22  2  0
 20 23  1  0
 23 24  1  0
 24 25  1  0
 25 26  1  0
 26 27  2  0
 27 28  1  0
 28 29  2  0
 29 30  1  0
 30 31  2  0
 30 32  1  0
 19 33  1  0
  6 34  2  0
 34  2  1  0
 14 10  1  0
 33 16  1  0
 32 26  1  0
  1 35  1  0
  1 36  1  0
  1 37  1  0
  3 38  1  0
  4 39  1  0
  5 40  1  0
  7 41  1  0
 10 42  1  0
 11 43  1  0
 11 44  1  0
 12 45  1  0
 12 46  1  0
 13 47  1  0
 13 48  1  0
 15 49  1  0
 15 50  1  0
 17 51  1  0
 18 52  1  0
 23 53  1  0
 24 54  1  0
 24 55  1  0
 25 56  1  0
 25 57  1  0
 28 58  1  0
 29 59  1  0
 32 60  1  0
M  END
>  <Energy>  (707) 
-63.851014750598857

>  <compound_id>  (707) 
436

>  <target_id>  (707) 
1

>  <reference_id>  (707) 
66

>  <inspiration_ids>  (707) 
[184, 66]

>  <energy_score>  (707) 
-71.84574250558963

>  <distance_score>  (707) 
2.1527008139967454

>  <path>  (707) 
/opt/xchem-fragalysis-2/maxwin/BulkDock/SCRATCH/505736/C436-P66/C436-P66.minimised.mol

>  <scratch_subdir>  (707) 
/opt/xchem-fragalysis-2/maxwin/BulkDock/SCRATCH/505736/C436-P66

>  <fragmenstein_runtime>  (707) 
11.313843011856079

>  <fragmenstein_outcome>  (707) 
too moved

>  <fragmenstein_mode>  (707) 
expansion

>  <fragmenstein_error>  (707) 


$$$$
C2816-P184
     RDKit          3D

 45 47  0  0  0  0  0  0  0  0999 V2000
   14.8151    0.0349   16.4164 C   0  0  0  0  0  0  0  0  0  0  0  0
   13.6512   -0.8542   16.0907 C   0  0  0  0  0  0  0  0  0  0  0  0
   12.7545   -0.4579   15.0834 C   0  0  0  0  0  0  0  0  0  0  0  0
   11.7319   -1.3075   14.6741 C   0  0  0  0  0  0  0  0  0  0  0  0
   11.6184   -2.5581   15.2581 C   0  0  0  0  0  0  0  0  0  0  0  0
   10.6476   -3.3807   14.8538 F   0  0  0  0  0  0  0  0  0  0  0  0
   12.4750   -2.9626   16.2728 C   0  0  0  0  0  0  0  0  0  0  0  0
   13.4797   -2.1017   16.7144 C   0  0  0  0  0  0  0  0  0  0  0  0
   14.2732   -2.4649   17.8021 N   0  0  0  0  0  0  0  0  0  0  0  0
   14.4765   -3.8393   18.4831 C   0  0  0  0  0  0  0  0  0  0  0  0
   13.9538   -4.8644   18.2885 O   0  0  0  0  0  0  0  0  0  0  0  0
   15.4726   -3.6237   19.6125 C   0  0  0  0  0  0  0  0  0  0  0  0
   15.9180   -4.7477   20.1887 C   0  0  0  0  0  0  0  0  0  0  0  0
   16.7897   -4.6079   21.3525 C   0  0  0  0  0  0  0  0  0  0  0  0
   17.2665   -5.5756   21.9292 O   0  0  0  0  0  0  0  0  0  0  0  0
   17.0164   -3.3275   21.7556 N   0  0  0  0  0  0  0  0  0  0  0  0
   16.5071   -2.2404   21.0960 C   0  0  0  0  0  0  0  0  0  0  0  0
   16.8058   -0.9083   21.7467 C   0  0  0  0  0  0  0  0  0  0  0  0
   17.5492    0.0537   20.8334 C   0  0  0  0  0  0  0  0  0  0  0  0
   18.0157    1.2190   21.6214 N   0  0  0  0  0  0  0  0  0  0  0  0
   17.1175    2.6484   21.5534 S   0  0  0  0  0  0  0  0  0  0  0  0
   16.9573    2.9910   20.1586 O   0  0  0  0  0  0  0  0  0  0  0  0
   17.7348    3.5574   22.4917 O   0  0  0  0  0  0  0  0  0  0  0  0
   15.5351    2.3077   22.2137 C   0  0  0  0  0  0  0  0  0  0  0  0
   14.9972    2.2679   23.4844 C   0  0  0  0  0  0  0  0  0  0  0  0
   13.6534    1.8052   23.4355 C   0  0  0  0  0  0  0  0  0  0  0  0
   13.1626    1.5362   22.2322 N   0  0  0  0  0  0  0  0  0  0  0  0
   14.3351    1.8518   21.1065 S   0  0  0  0  0  0  0  0  0  0  0  0
   15.7862   -2.3337   20.0213 N   0  0  0  0  0  0  0  0  0  0  0  0
   15.7581   -0.5068   16.2888 H   0  0  0  0  0  0  0  0  0  0  0  0
   14.7390    0.3971   17.4469 H   0  0  0  0  0  0  0  0  0  0  0  0
   14.8507    0.9115   15.7607 H   0  0  0  0  0  0  0  0  0  0  0  0
   12.8664    0.5055   14.5897 H   0  0  0  0  0  0  0  0  0  0  0  0
   11.0391   -1.0123   13.8918 H   0  0  0  0  0  0  0  0  0  0  0  0
   12.3126   -3.9359   16.7247 H   0  0  0  0  0  0  0  0  0  0  0  0
   14.8380   -1.7645   18.2756 H   0  0  0  0  0  0  0  0  0  0  0  0
   15.6531   -5.7493   19.8751 H   0  0  0  0  0  0  0  0  0  0  0  0
   17.5807   -3.2351   22.5891 H   0  0  0  0  0  0  0  0  0  0  0  0
   15.8489   -0.4926   22.0701 H   0  0  0  0  0  0  0  0  0  0  0  0
   17.3903   -1.0694   22.6613 H   0  0  0  0  0  0  0  0  0  0  0  0
   18.4331   -0.4394   20.4113 H   0  0  0  0  0  0  0  0  0  0  0  0
   16.9358    0.3569   19.9794 H   0  0  0  0  0  0  0  0  0  0  0  0
   19.0000    1.4508   21.4679 H   0  0  0  0  0  0  0  0  0  0  0  0
   15.5464    2.5190   24.3824 H   0  0  0  0  0  0  0  0  0  0  0  0
   12.9996    1.6507   24.2852 H   0  0  0  0  0  0  0  0  0  0  0  0
  1  2  1  0
  2  3  2  0
  3  4  1  0
  4  5  2  0
  5  6  1  0
  5  7  1  0
  7  8  2  0
  8  9  1  0
  9 10  1  0
 10 11  2  0
 10 12  1  0
 12 13  2  0
 13 14  1  0
 14 15  2  0
 14 16  1  0
 16 17  1  0
 17 18  1  0
 18 19  1  0
 19 20  1  0
 20 21  1  0
 21 22  2  0
 21 23  2  0
 21 24  1  0
 24 25  2  0
 25 26  1  0
 26 27  2  0
 27 28  1  0
 17 29  2  0
  8  2  1  0
 29 12  1  0
 28 24  1  0
  1 30  1  0
  1 31  1  0
  1 32  1  0
  3 33  1  0
  4 34  1  0
  7 35  1  0
  9 36  1  0
 13 37  1  0
 16 38  1  0
 18 39  1  0
 18 40  1  0
 19 41  1  0
 19 42  1  0
 20 43  1  0
 25 44  1  0
 26 45  1  0
M  END
>  <Energy>  (708) 
-101.34258767927167

>  <compound_id>  (708) 
2816

>  <target_id>  (708) 
1

>  <reference_id>  (708) 
184

>  <inspiration_ids>  (708) 
[184, 76]

>  <energy_score>  (708) 
-77.85366142044657

>  <distance_score>  (708) 
0.9965530756411072

>  <path>  (708) 
/opt/xchem-fragalysis-2/maxwin/BulkDock/SCRATCH/505736/C2816-P184/C2816-P184.minimised.mol

>  <scratch_subdir>  (708) 
/opt/xchem-fragalysis-2/maxwin/BulkDock/SCRATCH/505736/C2816-P184

>  <fragmenstein_runtime>  (708) 
12.385591268539429

>  <fragmenstein_outcome>  (708) 
acceptable

>  <fragmenstein_mode>  (708) 
expansion

>  <fragmenstein_error>  (708) 


$$$$
C2816-P76
     RDKit          3D

 45 47  0  0  0  0  0  0  0  0999 V2000
   15.5594   -0.8713   15.6346 C   0  0  0  0  0  0  0  0  0  0  0  0
   14.2721   -1.6341   15.5244 C   0  0  0  0  0  0  0  0  0  0  0  0
   13.4041   -1.2538   14.4870 C   0  0  0  0  0  0  0  0  0  0  0  0
   12.1598   -1.8484   14.3499 C   0  0  0  0  0  0  0  0  0  0  0  0
   11.7760   -2.8321   15.2386 C   0  0  0  0  0  0  0  0  0  0  0  0
   10.5781   -3.4018   15.1035 F   0  0  0  0  0  0  0  0  0  0  0  0
   12.6064   -3.2290   16.2764 C   0  0  0  0  0  0  0  0  0  0  0  0
   13.8659   -2.6442   16.4186 C   0  0  0  0  0  0  0  0  0  0  0  0
   14.5715   -2.9737   17.5718 N   0  0  0  0  0  0  0  0  0  0  0  0
   16.0974   -3.0569   17.8286 C   0  0  0  0  0  0  0  0  0  0  0  0
   16.9957   -2.9374   17.0936 O   0  0  0  0  0  0  0  0  0  0  0  0
   16.2632   -3.2301   19.3065 C   0  0  0  0  0  0  0  0  0  0  0  0
   16.2101   -4.4564   19.8324 C   0  0  0  0  0  0  0  0  0  0  0  0
   16.3757   -4.5422   21.2899 C   0  0  0  0  0  0  0  0  0  0  0  0
   16.2743   -5.6101   21.8794 O   0  0  0  0  0  0  0  0  0  0  0  0
   16.6412   -3.3636   21.9295 N   0  0  0  0  0  0  0  0  0  0  0  0
   16.6687   -2.1671   21.2729 C   0  0  0  0  0  0  0  0  0  0  0  0
   16.9549   -0.9342   22.0957 C   0  0  0  0  0  0  0  0  0  0  0  0
   17.7034    0.1255   21.2858 C   0  0  0  0  0  0  0  0  0  0  0  0
   18.0014    1.2934   22.1448 N   0  0  0  0  0  0  0  0  0  0  0  0
   17.0790    2.6925   21.9338 S   0  0  0  0  0  0  0  0  0  0  0  0
   17.1366    3.0566   20.5373 O   0  0  0  0  0  0  0  0  0  0  0  0
   17.4957    3.6089   22.9715 O   0  0  0  0  0  0  0  0  0  0  0  0
   15.4202    2.2924   22.3188 C   0  0  0  0  0  0  0  0  0  0  0  0
   14.6565    2.3112   23.4686 C   0  0  0  0  0  0  0  0  0  0  0  0
   13.3668    1.7702   23.2108 C   0  0  0  0  0  0  0  0  0  0  0  0
   13.1213    1.3864   21.9634 N   0  0  0  0  0  0  0  0  0  0  0  0
   14.4741    1.6778   21.0533 S   0  0  0  0  0  0  0  0  0  0  0  0
   16.4371   -2.0649   20.0096 N   0  0  0  0  0  0  0  0  0  0  0  0
   16.3815   -1.4503   15.2056 H   0  0  0  0  0  0  0  0  0  0  0  0
   15.7748   -0.6039   16.6732 H   0  0  0  0  0  0  0  0  0  0  0  0
   15.5079    0.0774   15.0875 H   0  0  0  0  0  0  0  0  0  0  0  0
   13.6873   -0.4700   13.7865 H   0  0  0  0  0  0  0  0  0  0  0  0
   11.4950   -1.5345   13.5579 H   0  0  0  0  0  0  0  0  0  0  0  0
   12.2668   -4.0112   16.9470 H   0  0  0  0  0  0  0  0  0  0  0  0
   14.0718   -3.2091   18.4211 H   0  0  0  0  0  0  0  0  0  0  0  0
   16.0724   -5.3672   19.2679 H   0  0  0  0  0  0  0  0  0  0  0  0
   16.7496   -3.4209   22.9328 H   0  0  0  0  0  0  0  0  0  0  0  0
   15.9987   -0.5550   22.4669 H   0  0  0  0  0  0  0  0  0  0  0  0
   17.5434   -1.2156   22.9775 H   0  0  0  0  0  0  0  0  0  0  0  0
   18.6585   -0.2851   20.9354 H   0  0  0  0  0  0  0  0  0  0  0  0
   17.1572    0.4202   20.3851 H   0  0  0  0  0  0  0  0  0  0  0  0
   18.9895    1.5562   22.1399 H   0  0  0  0  0  0  0  0  0  0  0  0
   15.0159    2.6603   24.4277 H   0  0  0  0  0  0  0  0  0  0  0  0
   12.5721    1.6424   23.9356 H   0  0  0  0  0  0  0  0  0  0  0  0
  1  2  1  0
  2  3  2  0
  3  4  1  0
  4  5  2  0
  5  6  1  0
  5  7  1  0
  7  8  2  0
  8  9  1  0
  9 10  1  0
 10 11  2  0
 10 12  1  0
 12 13  2  0
 13 14  1  0
 14 15  2  0
 14 16  1  0
 16 17  1  0
 17 18  1  0
 18 19  1  0
 19 20  1  0
 20 21  1  0
 21 22  2  0
 21 23  2  0
 21 24  1  0
 24 25  2  0
 25 26  1  0
 26 27  2  0
 27 28  1  0
 17 29  2  0
  8  2  1  0
 29 12  1  0
 28 24  1  0
  1 30  1  0
  1 31  1  0
  1 32  1  0
  3 33  1  0
  4 34  1  0
  7 35  1  0
  9 36  1  0
 13 37  1  0
 16 38  1  0
 18 39  1  0
 18 40  1  0
 19 41  1  0
 19 42  1  0
 20 43  1  0
 25 44  1  0
 26 45  1  0
M  END
>  <Energy>  (709) 
-82.496773105486824

>  <compound_id>  (709) 
2816

>  <target_id>  (709) 
1

>  <reference_id>  (709) 
76

>  <inspiration_ids>  (709) 
[184, 76]

>  <energy_score>  (709) 
-59.00784684665935

>  <distance_score>  (709) 
1.2000751099079174

>  <path>  (709) 
/opt/xchem-fragalysis-2/maxwin/BulkDock/SCRATCH/505736/C2816-P76/C2816-P76.minimised.mol

>  <scratch_subdir>  (709) 
/opt/xchem-fragalysis-2/maxwin/BulkDock/SCRATCH/505736/C2816-P76

>  <fragmenstein_runtime>  (709) 
12.521778106689453

>  <fragmenstein_outcome>  (709) 
too moved

>  <fragmenstein_mode>  (709) 
expansion

>  <fragmenstein_error>  (709) 


$$$$
C2817-P184
     RDKit          3D

 56 58  0  0  0  0  0  0  0  0999 V2000
   15.2043    3.9210   12.5795 C   0  0  0  0  0  0  0  0  0  0  0  0
   14.0994    2.9110   12.8364 C   0  0  0  0  0  0  0  0  0  0  0  0
   14.5754    1.7402   13.6925 C   0  0  0  0  0  0  0  0  0  0  0  0
   15.6719    1.6079   14.0766 O   0  0  0  0  0  0  0  0  0  0  0  0
   13.3237    0.8277   13.8759 N   0  0  0  0  0  0  0  0  0  0  0  0
   13.1559   -0.3353   14.6191 C   0  0  0  0  0  0  0  0  0  0  0  0
   14.2023   -0.8974   15.3518 C   0  0  0  0  0  0  0  0  0  0  0  0
   14.0278   -2.0907   16.0823 C   0  0  0  0  0  0  0  0  0  0  0  0
   15.2663   -2.7468   16.6711 C   0  0  0  0  0  0  0  0  0  0  0  0
   15.2838   -3.1032   18.1146 C   0  0  0  0  0  0  0  0  0  0  0  0
   15.2218   -4.3584   18.6945 C   0  0  0  0  0  0  0  0  0  0  0  0
   15.5001   -4.3196   20.0821 C   0  0  0  0  0  0  0  0  0  0  0  0
   15.8373   -3.0497   20.4948 C   0  0  0  0  0  0  0  0  0  0  0  0
   16.4958   -2.4496   22.0162 S   0  0  0  0  0  0  0  0  0  0  0  0
   17.9255   -2.4073   21.8089 O   0  0  0  0  0  0  0  0  0  0  0  0
   15.8886   -3.2606   23.0457 O   0  0  0  0  0  0  0  0  0  0  0  0
   16.0018   -0.8549   22.2068 N   0  0  0  0  0  0  0  0  0  0  0  0
   14.5450   -0.6253   22.3594 C   0  0  0  0  0  0  0  0  0  0  0  0
   14.3025    0.6573   23.1259 C   0  0  0  0  0  0  0  0  0  0  0  0
   15.0166    1.7749   22.4164 C   0  0  0  0  0  0  0  0  0  0  0  0
   14.3262    2.5652   21.6586 N   0  0  0  0  0  0  0  0  0  0  0  0
   14.9945    3.5395   20.9481 C   0  0  0  0  0  0  0  0  0  0  0  0
   14.4180    4.3585   20.2385 O   0  0  0  0  0  0  0  0  0  0  0  0
   16.4854    3.5813   21.0122 C   0  0  0  0  0  0  0  0  0  0  0  0
   17.1117    2.7223   21.8167 C   0  0  0  0  0  0  0  0  0  0  0  0
   16.3869    1.8412   22.5517 N   0  0  0  0  0  0  0  0  0  0  0  0
   15.6301   -1.8938   19.2585 S   0  0  0  0  0  0  0  0  0  0  0  0
   12.7541   -2.6887   16.0837 C   0  0  0  0  0  0  0  0  0  0  0  0
   12.4871   -3.9015   16.9152 C   0  0  0  0  0  0  0  0  0  0  0  0
   11.7059   -2.1329   15.3180 C   0  0  0  0  0  0  0  0  0  0  0  0
   11.9113   -0.9664   14.5908 C   0  0  0  0  0  0  0  0  0  0  0  0
   10.9096   -0.4070   13.8392 O   0  0  0  0  0  0  0  0  0  0  0  0
   16.0454    3.4579   12.0529 H   0  0  0  0  0  0  0  0  0  0  0  0
   15.5844    4.3350   13.5193 H   0  0  0  0  0  0  0  0  0  0  0  0
   14.8307    4.7475   11.9674 H   0  0  0  0  0  0  0  0  0  0  0  0
   13.7365    2.5197   11.8795 H   0  0  0  0  0  0  0  0  0  0  0  0
   13.2688    3.4066   13.3512 H   0  0  0  0  0  0  0  0  0  0  0  0
   12.5492    1.2026   13.3405 H   0  0  0  0  0  0  0  0  0  0  0  0
   15.1816   -0.4230   15.3328 H   0  0  0  0  0  0  0  0  0  0  0  0
   15.5022   -3.6357   16.0808 H   0  0  0  0  0  0  0  0  0  0  0  0
   16.1309   -2.0925   16.4830 H   0  0  0  0  0  0  0  0  0  0  0  0
   15.0481   -5.2704   18.1350 H   0  0  0  0  0  0  0  0  0  0  0  0
   15.5600   -5.1846   20.7327 H   0  0  0  0  0  0  0  0  0  0  0  0
   16.4168   -0.2922   21.4585 H   0  0  0  0  0  0  0  0  0  0  0  0
   14.0837   -1.4480   22.9132 H   0  0  0  0  0  0  0  0  0  0  0  0
   14.0818   -0.5601   21.3710 H   0  0  0  0  0  0  0  0  0  0  0  0
   13.2307    0.8731   23.1887 H   0  0  0  0  0  0  0  0  0  0  0  0
   14.6955    0.5813   24.1463 H   0  0  0  0  0  0  0  0  0  0  0  0
   16.9900    4.3177   20.4034 H   0  0  0  0  0  0  0  0  0  0  0  0
   18.1898    2.6868   21.9310 H   0  0  0  0  0  0  0  0  0  0  0  0
   16.8736    1.1439   23.1131 H   0  0  0  0  0  0  0  0  0  0  0  0
   11.5110   -4.3222   16.6818 H   0  0  0  0  0  0  0  0  0  0  0  0
   12.5102   -3.6330   17.9714 H   0  0  0  0  0  0  0  0  0  0  0  0
   13.2199   -4.6867   16.7482 H   0  0  0  0  0  0  0  0  0  0  0  0
   10.7364   -2.6210   15.2905 H   0  0  0  0  0  0  0  0  0  0  0  0
   10.2204   -1.0777   13.6335 H   0  0  0  0  0  0  0  0  0  0  0  0
  1  2  1  0
  2  3  1  0
  3  4  2  0
  3  5  1  0
  5  6  1  0
  6  7  2  0
  7  8  1  0
  8  9  1  0
  9 10  1  0
 10 11  2  0
 11 12  1  0
 12 13  2  0
 13 14  1  0
 14 15  2  0
 14 16  2  0
 14 17  1  0
 17 18  1  0
 18 19  1  0
 19 20  1  0
 20 21  2  0
 21 22  1  0
 22 23  2  0
 22 24  1  0
 24 25  2  0
 25 26  1  0
 13 27  1  0
  8 28  2  0
 28 29  1  0
 28 30  1  0
 30 31  2  0
 31 32  1  0
 31  6  1  0
 27 10  1  0
 26 20  1  0
  1 33  1  0
  1 34  1  0
  1 35  1  0
  2 36  1  0
  2 37  1  0
  5 38  1  0
  7 39  1  0
  9 40  1  0
  9 41  1  0
 11 42  1  0
 12 43  1  0
 17 44  1  0
 18 45  1  0
 18 46  1  0
 19 47  1  0
 19 48  1  0
 24 49  1  0
 25 50  1  0
 26 51  1  0
 29 52  1  0
 29 53  1  0
 29 54  1  0
 30 55  1  0
 32 56  1  0
M  END
>  <Energy>  (710) 
-31.164351133695853

>  <compound_id>  (710) 
2817

>  <target_id>  (710) 
1

>  <reference_id>  (710) 
184

>  <inspiration_ids>  (710) 
[184, 80]

>  <energy_score>  (710) 
-96.472432833941

>  <distance_score>  (710) 
1.490616994371033

>  <path>  (710) 
/opt/xchem-fragalysis-2/maxwin/BulkDock/SCRATCH/505736/C2817-P184/C2817-P184.minimised.mol

>  <scratch_subdir>  (710) 
/opt/xchem-fragalysis-2/maxwin/BulkDock/SCRATCH/505736/C2817-P184

>  <fragmenstein_runtime>  (710) 
53.46808838844299

>  <fragmenstein_outcome>  (710) 
too moved

>  <fragmenstein_mode>  (710) 
expansion

>  <fragmenstein_error>  (710) 


$$$$
C2817-P80
     RDKit          3D

 56 58  0  0  0  0  0  0  0  0999 V2000
   13.6211    3.9621   14.3445 C   0  0  0  0  0  0  0  0  0  0  0  0
   14.4328    2.9748   13.5264 C   0  0  0  0  0  0  0  0  0  0  0  0
   14.7669    1.7256   14.3308 C   0  0  0  0  0  0  0  0  0  0  0  0
   15.8146    1.5458   14.8181 O   0  0  0  0  0  0  0  0  0  0  0  0
   13.4720    0.8604   14.3735 N   0  0  0  0  0  0  0  0  0  0  0  0
   13.2440   -0.3956   14.9230 C   0  0  0  0  0  0  0  0  0  0  0  0
   14.2525   -1.1179   15.5619 C   0  0  0  0  0  0  0  0  0  0  0  0
   13.9913   -2.3896   16.1035 C   0  0  0  0  0  0  0  0  0  0  0  0
   15.1355   -3.2351   16.6273 C   0  0  0  0  0  0  0  0  0  0  0  0
   15.3148   -3.2512   18.1031 C   0  0  0  0  0  0  0  0  0  0  0  0
   15.0165   -4.2500   19.0089 C   0  0  0  0  0  0  0  0  0  0  0  0
   15.5213   -3.9681   20.3005 C   0  0  0  0  0  0  0  0  0  0  0  0
   16.1949   -2.7662   20.3348 C   0  0  0  0  0  0  0  0  0  0  0  0
   17.0272   -1.9330   21.6457 S   0  0  0  0  0  0  0  0  0  0  0  0
   17.8836   -0.9136   21.0850 O   0  0  0  0  0  0  0  0  0  0  0  0
   17.5333   -2.9733   22.5113 O   0  0  0  0  0  0  0  0  0  0  0  0
   15.8517   -1.1314   22.5340 N   0  0  0  0  0  0  0  0  0  0  0  0
   14.7535   -0.4806   21.7859 C   0  0  0  0  0  0  0  0  0  0  0  0
   14.2165    0.6681   22.6066 C   0  0  0  0  0  0  0  0  0  0  0  0
   15.1299    1.8518   22.3956 C   0  0  0  0  0  0  0  0  0  0  0  0
   14.5785    3.0051   22.1853 N   0  0  0  0  0  0  0  0  0  0  0  0
   15.3986    4.0864   21.9444 C   0  0  0  0  0  0  0  0  0  0  0  0
   14.9817    5.2375   21.8552 O   0  0  0  0  0  0  0  0  0  0  0  0
   16.8584    3.8521   21.7530 C   0  0  0  0  0  0  0  0  0  0  0  0
   17.3382    2.6359   22.0090 C   0  0  0  0  0  0  0  0  0  0  0  0
   16.4940    1.6501   22.4082 N   0  0  0  0  0  0  0  0  0  0  0  0
   16.1204   -1.9492   18.8440 S   0  0  0  0  0  0  0  0  0  0  0  0
   12.6824   -2.8951   16.0490 C   0  0  0  0  0  0  0  0  0  0  0  0
   12.3597   -4.1853   16.7268 C   0  0  0  0  0  0  0  0  0  0  0  0
   11.6831   -2.1908   15.3589 C   0  0  0  0  0  0  0  0  0  0  0  0
   11.9698   -0.9530   14.7956 C   0  0  0  0  0  0  0  0  0  0  0  0
   11.0011   -0.2695   14.1039 O   0  0  0  0  0  0  0  0  0  0  0  0
   13.4454    4.8772   13.7707 H   0  0  0  0  0  0  0  0  0  0  0  0
   12.6484    3.5477   14.6276 H   0  0  0  0  0  0  0  0  0  0  0  0
   14.1476    4.2306   15.2664 H   0  0  0  0  0  0  0  0  0  0  0  0
   15.3756    3.4363   13.2110 H   0  0  0  0  0  0  0  0  0  0  0  0
   13.8980    2.6933   12.6125 H   0  0  0  0  0  0  0  0  0  0  0  0
   12.7194    1.3537   13.9092 H   0  0  0  0  0  0  0  0  0  0  0  0
   15.2608   -0.7129   15.6168 H   0  0  0  0  0  0  0  0  0  0  0  0
   16.0670   -2.8915   16.1536 H   0  0  0  0  0  0  0  0  0  0  0  0
   15.0378   -4.2618   16.2543 H   0  0  0  0  0  0  0  0  0  0  0  0
   14.4932   -5.1570   18.7514 H   0  0  0  0  0  0  0  0  0  0  0  0
   15.4337   -4.6197   21.1621 H   0  0  0  0  0  0  0  0  0  0  0  0
   15.5271   -1.7251   23.3024 H   0  0  0  0  0  0  0  0  0  0  0  0
   15.0926   -0.1098   20.8149 H   0  0  0  0  0  0  0  0  0  0  0  0
   13.9852   -1.2350   21.6193 H   0  0  0  0  0  0  0  0  0  0  0  0
   14.1716    0.4376   23.6762 H   0  0  0  0  0  0  0  0  0  0  0  0
   13.2099    0.9361   22.2672 H   0  0  0  0  0  0  0  0  0  0  0  0
   17.4636    4.6880   21.4353 H   0  0  0  0  0  0  0  0  0  0  0  0
   18.3842    2.3674   21.9094 H   0  0  0  0  0  0  0  0  0  0  0  0
   16.8728    0.7060   22.4814 H   0  0  0  0  0  0  0  0  0  0  0  0
   11.3401   -4.4828   16.5061 H   0  0  0  0  0  0  0  0  0  0  0  0
   12.4541   -4.0707   17.8068 H   0  0  0  0  0  0  0  0  0  0  0  0
   13.0088   -4.9985   16.4029 H   0  0  0  0  0  0  0  0  0  0  0  0
   10.6891   -2.6150   15.2549 H   0  0  0  0  0  0  0  0  0  0  0  0
   10.3917   -0.9421   13.7153 H   0  0  0  0  0  0  0  0  0  0  0  0
  1  2  1  0
  2  3  1  0
  3  4  2  0
  3  5  1  0
  5  6  1  0
  6  7  2  0
  7  8  1  0
  8  9  1  0
  9 10  1  0
 10 11  2  0
 11 12  1  0
 12 13  2  0
 13 14  1  0
 14 15  2  0
 14 16  2  0
 14 17  1  0
 17 18  1  0
 18 19  1  0
 19 20  1  0
 20 21  2  0
 21 22  1  0
 22 23  2  0
 22 24  1  0
 24 25  2  0
 25 26  1  0
 13 27  1  0
  8 28  2  0
 28 29  1  0
 28 30  1  0
 30 31  2  0
 31 32  1  0
 31  6  1  0
 27 10  1  0
 26 20  1  0
  1 33  1  0
  1 34  1  0
  1 35  1  0
  2 36  1  0
  2 37  1  0
  5 38  1  0
  7 39  1  0
  9 40  1  0
  9 41  1  0
 11 42  1  0
 12 43  1  0
 17 44  1  0
 18 45  1  0
 18 46  1  0
 19 47  1  0
 19 48  1  0
 24 49  1  0
 25 50  1  0
 26 51  1  0
 29 52  1  0
 29 53  1  0
 29 54  1  0
 30 55  1  0
 32 56  1  0
M  END
>  <Energy>  (711) 
-31.523295455479847

>  <compound_id>  (711) 
2817

>  <target_id>  (711) 
1

>  <reference_id>  (711) 
80

>  <inspiration_ids>  (711) 
[184, 80]

>  <energy_score>  (711) 
-96.8313771557208

>  <distance_score>  (711) 
1.4458516778692339

>  <path>  (711) 
/opt/xchem-fragalysis-2/maxwin/BulkDock/SCRATCH/505736/C2817-P80/C2817-P80.minimised.mol

>  <scratch_subdir>  (711) 
/opt/xchem-fragalysis-2/maxwin/BulkDock/SCRATCH/505736/C2817-P80

>  <fragmenstein_runtime>  (711) 
51.669618129730225

>  <fragmenstein_outcome>  (711) 
too moved

>  <fragmenstein_mode>  (711) 
expansion

>  <fragmenstein_error>  (711) 


$$$$
C2820-P184
     RDKit          3D

 32 34  0  0  0  0  0  0  0  0999 V2000
   17.1836   -5.4539   16.8975 O   0  0  0  0  0  0  0  0  0  0  0  0
   16.9368   -4.2618   16.8400 C   0  0  0  0  0  0  0  0  0  0  0  0
   16.1726   -3.6560   15.8492 N   0  0  0  0  0  0  0  0  0  0  0  0
   16.1938   -2.3675   16.1040 C   0  0  0  0  0  0  0  0  0  0  0  0
   15.4817   -1.3880   15.1569 C   0  0  0  0  0  0  0  0  0  0  0  0
   14.5793   -0.3303   15.7681 C   0  0  0  0  0  0  0  0  0  0  0  0
   13.1652   -0.6650   15.8828 N   0  0  0  0  0  0  0  0  0  0  0  0
   12.6913   -2.2087   16.3443 S   0  0  0  0  0  0  0  0  0  0  0  0
   13.1446   -3.0992   15.3161 O   0  0  0  0  0  0  0  0  0  0  0  0
   11.2822   -2.0460   16.5809 O   0  0  0  0  0  0  0  0  0  0  0  0
   13.5497   -2.6004   17.8286 C   0  0  0  0  0  0  0  0  0  0  0  0
   14.2394   -1.8792   18.7904 C   0  0  0  0  0  0  0  0  0  0  0  0
   14.7882   -2.7378   19.7828 C   0  0  0  0  0  0  0  0  0  0  0  0
   14.6176   -4.0363   19.5911 N   0  0  0  0  0  0  0  0  0  0  0  0
   13.6691   -4.2384   18.2440 S   0  0  0  0  0  0  0  0  0  0  0  0
   16.9558   -2.0445   17.2110 N   0  0  0  0  0  0  0  0  0  0  0  0
   17.4744   -0.8902   17.7503 C   0  0  0  0  0  0  0  0  0  0  0  0
   18.3111   -0.9306   18.8039 C   0  0  0  0  0  0  0  0  0  0  0  0
   18.6928   -2.2300   19.3454 C   0  0  0  0  0  0  0  0  0  0  0  0
   18.2541   -3.3607   18.7603 C   0  0  0  0  0  0  0  0  0  0  0  0
   17.4085   -3.2823   17.6851 N   0  0  0  0  0  0  0  0  0  0  0  0
   16.3143   -0.8543   14.6755 H   0  0  0  0  0  0  0  0  0  0  0  0
   14.9939   -1.9343   14.3440 H   0  0  0  0  0  0  0  0  0  0  0  0
   14.9402   -0.0043   16.7449 H   0  0  0  0  0  0  0  0  0  0  0  0
   14.6260    0.5574   15.1239 H   0  0  0  0  0  0  0  0  0  0  0  0
   12.6212   -0.4328   15.0471 H   0  0  0  0  0  0  0  0  0  0  0  0
   14.3155   -0.8019   18.8080 H   0  0  0  0  0  0  0  0  0  0  0  0
   15.3445   -2.4327   20.6602 H   0  0  0  0  0  0  0  0  0  0  0  0
   17.1859    0.0385   17.2759 H   0  0  0  0  0  0  0  0  0  0  0  0
   18.7369   -0.0344   19.2408 H   0  0  0  0  0  0  0  0  0  0  0  0
   19.3641   -2.2637   20.1970 H   0  0  0  0  0  0  0  0  0  0  0  0
   18.5366   -4.3558   19.0884 H   0  0  0  0  0  0  0  0  0  0  0  0
  1  2  2  0
  2  3  1  0
  3  4  2  0
  4  5  1  0
  5  6  1  0
  6  7  1  0
  7  8  1  0
  8  9  2  0
  8 10  2  0
  8 11  1  0
 11 12  2  0
 12 13  1  0
 13 14  2  0
 14 15  1  0
  4 16  1  0
 16 17  1  0
 17 18  2  0
 18 19  1  0
 19 20  2  0
 20 21  1  0
 21  2  1  0
 15 11  1  0
 21 16  1  0
  5 22  1  0
  5 23  1  0
  6 24  1  0
  6 25  1  0
  7 26  1  0
 12 27  1  0
 13 28  1  0
 17 29  1  0
 18 30  1  0
 19 31  1  0
 20 32  1  0
M  END
>  <Energy>  (712) 
-26.148160026068034

>  <compound_id>  (712) 
2820

>  <target_id>  (712) 
1

>  <reference_id>  (712) 
184

>  <inspiration_ids>  (712) 
[184, 86]

>  <energy_score>  (712) 
-66.11404103324355

>  <distance_score>  (712) 
2.4131373452701466

>  <path>  (712) 
/opt/xchem-fragalysis-2/maxwin/BulkDock/SCRATCH/505736/C2820-P184/C2820-P184.minimised.mol

>  <scratch_subdir>  (712) 
/opt/xchem-fragalysis-2/maxwin/BulkDock/SCRATCH/505736/C2820-P184

>  <fragmenstein_runtime>  (712) 
12.760651350021362

>  <fragmenstein_outcome>  (712) 
too moved

>  <fragmenstein_mode>  (712) 
expansion

>  <fragmenstein_error>  (712) 


$$$$
C2820-P86
     RDKit          3D

 32 34  0  0  0  0  0  0  0  0999 V2000
   16.7952   -5.8525   17.1944 O   0  0  0  0  0  0  0  0  0  0  0  0
   16.6695   -4.6624   16.9616 C   0  0  0  0  0  0  0  0  0  0  0  0
   15.8576   -4.1253   15.9738 N   0  0  0  0  0  0  0  0  0  0  0  0
   16.1016   -2.8346   15.9712 C   0  0  0  0  0  0  0  0  0  0  0  0
   15.4669   -1.9190   14.9194 C   0  0  0  0  0  0  0  0  0  0  0  0
   14.7405   -0.6899   15.4229 C   0  0  0  0  0  0  0  0  0  0  0  0
   13.3113   -0.8462   15.6067 N   0  0  0  0  0  0  0  0  0  0  0  0
   12.6854   -2.2095   16.3512 S   0  0  0  0  0  0  0  0  0  0  0  0
   12.9296   -3.3373   15.5006 O   0  0  0  0  0  0  0  0  0  0  0  0
   11.3361   -1.7833   16.6093 O   0  0  0  0  0  0  0  0  0  0  0  0
   13.5780   -2.4794   17.8463 C   0  0  0  0  0  0  0  0  0  0  0  0
   14.3707   -1.7065   18.6791 C   0  0  0  0  0  0  0  0  0  0  0  0
   14.9037   -2.4835   19.7459 C   0  0  0  0  0  0  0  0  0  0  0  0
   14.6087   -3.7747   19.7397 N   0  0  0  0  0  0  0  0  0  0  0  0
   13.5728   -4.0586   18.4756 S   0  0  0  0  0  0  0  0  0  0  0  0
   17.0083   -2.4458   16.9399 N   0  0  0  0  0  0  0  0  0  0  0  0
   17.7088   -1.2991   17.2337 C   0  0  0  0  0  0  0  0  0  0  0  0
   18.6367   -1.2821   18.2084 C   0  0  0  0  0  0  0  0  0  0  0  0
   18.9165   -2.5193   18.9277 C   0  0  0  0  0  0  0  0  0  0  0  0
   18.2864   -3.6577   18.5815 C   0  0  0  0  0  0  0  0  0  0  0  0
   17.3469   -3.6367   17.5840 N   0  0  0  0  0  0  0  0  0  0  0  0
   16.3269   -1.5679   14.3309 H   0  0  0  0  0  0  0  0  0  0  0  0
   14.8626   -2.4948   14.2177 H   0  0  0  0  0  0  0  0  0  0  0  0
   14.8661    0.1040   14.6755 H   0  0  0  0  0  0  0  0  0  0  0  0
   15.1769   -0.3001   16.3439 H   0  0  0  0  0  0  0  0  0  0  0  0
   12.7635   -0.7072   14.7518 H   0  0  0  0  0  0  0  0  0  0  0  0
   14.5372   -0.6467   18.5509 H   0  0  0  0  0  0  0  0  0  0  0  0
   15.5353   -2.1221   20.5476 H   0  0  0  0  0  0  0  0  0  0  0  0
   17.4819   -0.4268   16.6348 H   0  0  0  0  0  0  0  0  0  0  0  0
   19.2041   -0.3914   18.4529 H   0  0  0  0  0  0  0  0  0  0  0  0
   19.6641   -2.5086   19.7136 H   0  0  0  0  0  0  0  0  0  0  0  0
   18.4795   -4.6175   19.0494 H   0  0  0  0  0  0  0  0  0  0  0  0
  1  2  2  0
  2  3  1  0
  3  4  2  0
  4  5  1  0
  5  6  1  0
  6  7  1  0
  7  8  1  0
  8  9  2  0
  8 10  2  0
  8 11  1  0
 11 12  2  0
 12 13  1  0
 13 14  2  0
 14 15  1  0
  4 16  1  0
 16 17  1  0
 17 18  2  0
 18 19  1  0
 19 20  2  0
 20 21  1  0
 21  2  1  0
 15 11  1  0
 21 16  1  0
  5 22  1  0
  5 23  1  0
  6 24  1  0
  6 25  1  0
  7 26  1  0
 12 27  1  0
 13 28  1  0
 17 29  1  0
 18 30  1  0
 19 31  1  0
 20 32  1  0
M  END
>  <Energy>  (713) 
-26.342424782106939

>  <compound_id>  (713) 
2820

>  <target_id>  (713) 
1

>  <reference_id>  (713) 
86

>  <inspiration_ids>  (713) 
[184, 86]

>  <energy_score>  (713) 
-66.30830578928314

>  <distance_score>  (713) 
2.2749109939840455

>  <path>  (713) 
/opt/xchem-fragalysis-2/maxwin/BulkDock/SCRATCH/505736/C2820-P86/C2820-P86.minimised.mol

>  <scratch_subdir>  (713) 
/opt/xchem-fragalysis-2/maxwin/BulkDock/SCRATCH/505736/C2820-P86

>  <fragmenstein_runtime>  (713) 
12.134118795394897

>  <fragmenstein_outcome>  (713) 
too moved

>  <fragmenstein_mode>  (713) 
expansion

>  <fragmenstein_error>  (713) 


$$$$
C2822-P184
     RDKit          3D

 31 33  0  0  0  0  0  0  0  0999 V2000
   16.0481   -2.8949   12.4671 O   0  0  0  0  0  0  0  0  0  0  0  0
   15.1874   -2.1921   12.9734 C   0  0  0  0  0  0  0  0  0  0  0  0
   13.8544   -2.5413   13.1687 N   0  0  0  0  0  0  0  0  0  0  0  0
   13.3464   -1.5301   13.8359 C   0  0  0  0  0  0  0  0  0  0  0  0
   11.9513   -1.5561   14.4060 C   0  0  0  0  0  0  0  0  0  0  0  0
   11.6506   -2.8812   15.0962 C   0  0  0  0  0  0  0  0  0  0  0  0
   12.1697   -3.0632   16.4842 N   0  0  0  0  0  0  0  0  0  0  0  0
   13.5111   -2.1947   17.0124 S   0  0  0  0  0  0  0  0  0  0  0  0
   14.5828   -2.4678   16.0916 O   0  0  0  0  0  0  0  0  0  0  0  0
   13.0688   -0.8418   17.2560 O   0  0  0  0  0  0  0  0  0  0  0  0
   14.0986   -2.8297   18.5200 C   0  0  0  0  0  0  0  0  0  0  0  0
   13.8467   -3.9360   19.3003 C   0  0  0  0  0  0  0  0  0  0  0  0
   14.6974   -3.9274   20.4405 C   0  0  0  0  0  0  0  0  0  0  0  0
   15.5618   -2.9217   20.5439 N   0  0  0  0  0  0  0  0  0  0  0  0
   15.3353   -1.9091   19.2515 S   0  0  0  0  0  0  0  0  0  0  0  0
   14.2074   -0.4842   14.0247 N   0  0  0  0  0  0  0  0  0  0  0  0
   14.2893    0.6855   14.7290 C   0  0  0  0  0  0  0  0  0  0  0  0
   15.3272    1.4512   14.8836 N   0  0  0  0  0  0  0  0  0  0  0  0
   16.4614    0.9700   14.2716 C   0  0  0  0  0  0  0  0  0  0  0  0
   16.5132   -0.1810   13.5856 C   0  0  0  0  0  0  0  0  0  0  0  0
   15.3872   -0.9258   13.4664 N   0  0  0  0  0  0  0  0  0  0  0  0
   11.2789   -1.4369   13.5544 H   0  0  0  0  0  0  0  0  0  0  0  0
   11.7718   -0.7048   15.0658 H   0  0  0  0  0  0  0  0  0  0  0  0
   10.5625   -2.9768   15.1656 H   0  0  0  0  0  0  0  0  0  0  0  0
   11.9900   -3.7271   14.4922 H   0  0  0  0  0  0  0  0  0  0  0  0
   12.2339   -4.0531   16.7321 H   0  0  0  0  0  0  0  0  0  0  0  0
   13.0955   -4.6848   19.0964 H   0  0  0  0  0  0  0  0  0  0  0  0
   14.6992   -4.6658   21.2329 H   0  0  0  0  0  0  0  0  0  0  0  0
   13.3369    0.9794   15.1983 H   0  0  0  0  0  0  0  0  0  0  0  0
   17.3563    1.5754   14.3902 H   0  0  0  0  0  0  0  0  0  0  0  0
   17.4222   -0.5686   13.1398 H   0  0  0  0  0  0  0  0  0  0  0  0
  1  2  2  0
  2  3  1  0
  3  4  2  0
  4  5  1  0
  5  6  1  0
  6  7  1  0
  7  8  1  0
  8  9  2  0
  8 10  2  0
  8 11  1  0
 11 12  2  0
 12 13  1  0
 13 14  2  0
 14 15  1  0
  4 16  1  0
 16 17  1  0
 17 18  2  0
 18 19  1  0
 19 20  2  0
 20 21  1  0
 21  2  1  0
 15 11  1  0
 21 16  1  0
  5 22  1  0
  5 23  1  0
  6 24  1  0
  6 25  1  0
  7 26  1  0
 12 27  1  0
 13 28  1  0
 17 29  1  0
 19 30  1  0
 20 31  1  0
M  END
>  <Energy>  (714) 
-50.958535783534742

>  <compound_id>  (714) 
2822

>  <target_id>  (714) 
1

>  <reference_id>  (714) 
184

>  <inspiration_ids>  (714) 
[184, 97]

>  <energy_score>  (714) 
-43.74486006654416

>  <distance_score>  (714) 
1.9375612902329564

>  <path>  (714) 
/opt/xchem-fragalysis-2/maxwin/BulkDock/SCRATCH/505736/C2822-P184/C2822-P184.minimised.mol

>  <scratch_subdir>  (714) 
/opt/xchem-fragalysis-2/maxwin/BulkDock/SCRATCH/505736/C2822-P184

>  <fragmenstein_runtime>  (714) 
9.203800439834595

>  <fragmenstein_outcome>  (714) 
too moved

>  <fragmenstein_mode>  (714) 
expansion

>  <fragmenstein_error>  (714) 


$$$$
C2822-P97
     RDKit          3D

 31 33  0  0  0  0  0  0  0  0999 V2000
   17.4602   -2.7397   15.3945 O   0  0  0  0  0  0  0  0  0  0  0  0
   16.5669   -2.1686   14.7891 C   0  0  0  0  0  0  0  0  0  0  0  0
   15.4010   -2.7569   14.3337 N   0  0  0  0  0  0  0  0  0  0  0  0
   14.7035   -1.7883   13.7931 C   0  0  0  0  0  0  0  0  0  0  0  0
   13.3400   -1.9983   13.1864 C   0  0  0  0  0  0  0  0  0  0  0  0
   12.3739   -2.8482   13.9961 C   0  0  0  0  0  0  0  0  0  0  0  0
   11.4342   -2.0881   14.7577 N   0  0  0  0  0  0  0  0  0  0  0  0
   12.0380   -1.0357   15.8739 S   0  0  0  0  0  0  0  0  0  0  0  0
   12.8438   -0.0487   15.2047 O   0  0  0  0  0  0  0  0  0  0  0  0
   10.8115   -0.6360   16.5166 O   0  0  0  0  0  0  0  0  0  0  0  0
   13.1577   -1.9061   16.9535 C   0  0  0  0  0  0  0  0  0  0  0  0
   13.3206   -3.2157   17.3898 C   0  0  0  0  0  0  0  0  0  0  0  0
   14.4298   -3.3191   18.2852 C   0  0  0  0  0  0  0  0  0  0  0  0
   15.1096   -2.2019   18.5243 N   0  0  0  0  0  0  0  0  0  0  0  0
   14.4467   -0.9793   17.6194 S   0  0  0  0  0  0  0  0  0  0  0  0
   15.3255   -0.5785   13.8111 N   0  0  0  0  0  0  0  0  0  0  0  0
   15.0368    0.7355   13.5759 C   0  0  0  0  0  0  0  0  0  0  0  0
   15.6826    1.7786   14.0018 N   0  0  0  0  0  0  0  0  0  0  0  0
   16.7590    1.4693   14.7992 C   0  0  0  0  0  0  0  0  0  0  0  0
   17.1723    0.2186   15.0472 C   0  0  0  0  0  0  0  0  0  0  0  0
   16.4955   -0.8231   14.4994 N   0  0  0  0  0  0  0  0  0  0  0  0
   13.5909   -2.5302   12.2651 H   0  0  0  0  0  0  0  0  0  0  0  0
   12.9002   -1.0433   12.8954 H   0  0  0  0  0  0  0  0  0  0  0  0
   11.7974   -3.4918   13.3259 H   0  0  0  0  0  0  0  0  0  0  0  0
   12.8518   -3.4695   14.7433 H   0  0  0  0  0  0  0  0  0  0  0  0
   10.6509   -1.6971   14.2056 H   0  0  0  0  0  0  0  0  0  0  0  0
   12.6689   -4.0352   17.1162 H   0  0  0  0  0  0  0  0  0  0  0  0
   14.7593   -4.2184   18.7908 H   0  0  0  0  0  0  0  0  0  0  0  0
   14.1308    0.8826   12.9667 H   0  0  0  0  0  0  0  0  0  0  0  0
   17.2840    2.3145   15.2369 H   0  0  0  0  0  0  0  0  0  0  0  0
   18.0155   -0.0139   15.6886 H   0  0  0  0  0  0  0  0  0  0  0  0
  1  2  2  0
  2  3  1  0
  3  4  2  0
  4  5  1  0
  5  6  1  0
  6  7  1  0
  7  8  1  0
  8  9  2  0
  8 10  2  0
  8 11  1  0
 11 12  2  0
 12 13  1  0
 13 14  2  0
 14 15  1  0
  4 16  1  0
 16 17  1  0
 17 18  2  0
 18 19  1  0
 19 20  2  0
 20 21  1  0
 21  2  1  0
 15 11  1  0
 21 16  1  0
  5 22  1  0
  5 23  1  0
  6 24  1  0
  6 25  1  0
  7 26  1  0
 12 27  1  0
 13 28  1  0
 17 29  1  0
 19 30  1  0
 20 31  1  0
M  END
>  <Energy>  (715) 
-46.962650568173345

>  <compound_id>  (715) 
2822

>  <target_id>  (715) 
1

>  <reference_id>  (715) 
97

>  <inspiration_ids>  (715) 
[184, 97]

>  <energy_score>  (715) 
-39.74897485118491

>  <distance_score>  (715) 
2.371006207904425

>  <path>  (715) 
/opt/xchem-fragalysis-2/maxwin/BulkDock/SCRATCH/505736/C2822-P97/C2822-P97.minimised.mol

>  <scratch_subdir>  (715) 
/opt/xchem-fragalysis-2/maxwin/BulkDock/SCRATCH/505736/C2822-P97

>  <fragmenstein_runtime>  (715) 
10.745954751968384

>  <fragmenstein_outcome>  (715) 
too moved

>  <fragmenstein_mode>  (715) 
expansion

>  <fragmenstein_error>  (715) 


$$$$
C2823-P184
     RDKit          3D

 61 64  0  0  0  0  0  0  0  0999 V2000
   13.8251   -4.9222   18.5752 O   0  0  0  0  0  0  0  0  0  0  0  0
   14.2275   -4.1574   17.7138 C   0  0  0  0  0  0  0  0  0  0  0  0
   13.2388   -3.3782   16.9194 C   0  0  0  0  0  0  0  0  0  0  0  0
   13.7061   -2.5123   16.0169 C   0  0  0  0  0  0  0  0  0  0  0  0
   15.0519   -2.3760   15.8209 N   0  0  0  0  0  0  0  0  0  0  0  0
   15.9368   -3.1394   16.5463 C   0  0  0  0  0  0  0  0  0  0  0  0
   17.4212   -3.0057   16.2894 C   0  0  0  0  0  0  0  0  0  0  0  0
   18.1227   -2.4775   17.5425 C   0  0  0  0  0  0  0  0  0  0  0  0
   19.4058   -1.8639   17.2002 N   0  0  0  0  0  0  0  0  0  0  0  0
   20.3720   -1.2588   18.4441 S   0  0  0  0  0  0  0  0  0  0  0  0
   20.5055   -2.3154   19.4137 O   0  0  0  0  0  0  0  0  0  0  0  0
   19.7925    0.1423   18.6294 N   0  0  0  0  0  0  0  0  0  0  0  0
   20.1499    0.8881   19.8597 C   0  0  0  0  0  0  0  0  0  0  0  0
   19.0547    1.9133   20.1740 C   0  0  0  0  0  0  0  0  0  0  0  0
   17.9491    1.3908   21.1177 C   0  0  0  0  0  0  0  0  0  0  0  0
   18.5680    1.1752   22.3976 O   0  0  0  0  0  0  0  0  0  0  0  0
   17.3265    0.0704   20.6521 C   0  0  0  0  0  0  0  0  0  0  0  0
   16.2258   -0.4263   21.5961 C   0  0  0  0  0  0  0  0  0  0  0  0
   15.5646    0.6602   22.3421 N   0  0  0  0  0  0  0  0  0  0  0  0
   14.2542    0.2207   22.8465 C   0  0  0  0  0  0  0  0  0  0  0  0
   14.4626   -0.6818   24.0329 C   0  0  0  0  0  0  0  0  0  0  0  0
   15.0444   -0.2681   25.2806 C   0  0  0  0  0  0  0  0  0  0  0  0
   15.1164   -1.2896   26.2008 C   0  0  0  0  0  0  0  0  0  0  0  0
   14.4805   -2.7502   25.5848 S   0  0  0  0  0  0  0  0  0  0  0  0
   14.1134   -2.0199   24.0830 C   0  0  0  0  0  0  0  0  0  0  0  0
   15.4561    1.8687   21.5347 C   0  0  0  0  0  0  0  0  0  0  0  0
   16.8504    2.4659   21.2955 C   0  0  0  0  0  0  0  0  0  0  0  0
   21.9849   -0.9319   17.8458 C   0  0  0  0  0  0  0  0  0  0  0  0
   23.2542   -1.1643   18.3402 C   0  0  0  0  0  0  0  0  0  0  0  0
   24.2347   -0.6934   17.4234 C   0  0  0  0  0  0  0  0  0  0  0  0
   23.7906   -0.1330   16.3012 N   0  0  0  0  0  0  0  0  0  0  0  0
   22.1292   -0.1750   16.3243 S   0  0  0  0  0  0  0  0  0  0  0  0
   15.5650   -3.9934   17.4416 N   0  0  0  0  0  0  0  0  0  0  0  0
   12.1946   -3.5707   17.1068 H   0  0  0  0  0  0  0  0  0  0  0  0
   13.0609   -1.9087   15.3883 H   0  0  0  0  0  0  0  0  0  0  0  0
   15.3741   -1.7078   15.1298 H   0  0  0  0  0  0  0  0  0  0  0  0
   17.5653   -2.3223   15.4438 H   0  0  0  0  0  0  0  0  0  0  0  0
   17.8283   -3.9810   15.9998 H   0  0  0  0  0  0  0  0  0  0  0  0
   17.4902   -1.7397   18.0503 H   0  0  0  0  0  0  0  0  0  0  0  0
   18.2754   -3.3071   18.2426 H   0  0  0  0  0  0  0  0  0  0  0  0
   19.2116   -1.0238   16.6657 H   0  0  0  0  0  0  0  0  0  0  0  0
   20.3192    0.2184   20.7098 H   0  0  0  0  0  0  0  0  0  0  0  0
   21.0915    1.4168   19.6688 H   0  0  0  0  0  0  0  0  0  0  0  0
   19.5400    2.7656   20.6692 H   0  0  0  0  0  0  0  0  0  0  0  0
   18.6138    2.2937   19.2435 H   0  0  0  0  0  0  0  0  0  0  0  0
   17.8427    0.9343   23.0112 H   0  0  0  0  0  0  0  0  0  0  0  0
   18.0764   -0.7257   20.5973 H   0  0  0  0  0  0  0  0  0  0  0  0
   16.9072    0.2026   19.6464 H   0  0  0  0  0  0  0  0  0  0  0  0
   15.5104   -1.0037   20.9955 H   0  0  0  0  0  0  0  0  0  0  0  0
   16.6710   -1.1237   22.3161 H   0  0  0  0  0  0  0  0  0  0  0  0
   13.6703    1.0806   23.2007 H   0  0  0  0  0  0  0  0  0  0  0  0
   13.6679   -0.2572   22.0572 H   0  0  0  0  0  0  0  0  0  0  0  0
   15.4005    0.7355   25.4791 H   0  0  0  0  0  0  0  0  0  0  0  0
   15.5132   -1.2496   27.2054 H   0  0  0  0  0  0  0  0  0  0  0  0
   13.6515   -2.6097   23.3010 H   0  0  0  0  0  0  0  0  0  0  0  0
   14.9595    1.6585   20.5780 H   0  0  0  0  0  0  0  0  0  0  0  0
   14.8521    2.6316   22.0414 H   0  0  0  0  0  0  0  0  0  0  0  0
   17.1105    3.1195   22.1384 H   0  0  0  0  0  0  0  0  0  0  0  0
   16.7816    3.1037   20.4057 H   0  0  0  0  0  0  0  0  0  0  0  0
   23.4538   -1.6464   19.2882 H   0  0  0  0  0  0  0  0  0  0  0  0
   25.3081   -0.7510   17.5566 H   0  0  0  0  0  0  0  0  0  0  0  0
  1  2  2  0
  2  3  1  0
  3  4  2  0
  4  5  1  0
  5  6  1  0
  6  7  1  0
  7  8  1  0
  8  9  1  0
  9 10  1  0
 10 11  2  0
 10 12  2  0
 12 13  1  0
 13 14  1  0
 14 15  1  0
 15 16  1  0
 15 17  1  0
 17 18  1  0
 18 19  1  0
 19 20  1  0
 20 21  1  0
 21 22  1  0
 22 23  2  0
 23 24  1  0
 24 25  1  0
 19 26  1  0
 26 27  1  0
 10 28  1  0
 28 29  2  0
 29 30  1  0
 30 31  2  0
 31 32  1  0
  6 33  2  0
 33  2  1  0
 27 15  1  0
 32 28  1  0
 25 21  2  0
  3 34  1  0
  4 35  1  0
  5 36  1  0
  7 37  1  0
  7 38  1  0
  8 39  1  0
  8 40  1  0
  9 41  1  0
 13 42  1  0
 13 43  1  0
 14 44  1  0
 14 45  1  0
 16 46  1  0
 17 47  1  0
 17 48  1  0
 18 49  1  0
 18 50  1  0
 20 51  1  0
 20 52  1  0
 22 53  1  0
 23 54  1  0
 25 55  1  0
 26 56  1  0
 26 57  1  0
 27 58  1  0
 27 59  1  0
 29 60  1  0
 30 61  1  0
M  END
>  <Energy>  (716) 
-113.42088176780264

>  <compound_id>  (716) 
2823

>  <target_id>  (716) 
1

>  <reference_id>  (716) 
184

>  <inspiration_ids>  (716) 
[184, 98]

>  <energy_score>  (716) 
-133.33443005206016

>  <distance_score>  (716) 
1.0038542842793114

>  <path>  (716) 
/opt/xchem-fragalysis-2/maxwin/BulkDock/SCRATCH/505736/C2823-P184/C2823-P184.minimised.mol

>  <scratch_subdir>  (716) 
/opt/xchem-fragalysis-2/maxwin/BulkDock/SCRATCH/505736/C2823-P184

>  <fragmenstein_runtime>  (716) 
3.690005302429199

>  <fragmenstein_outcome>  (716) 
too moved

>  <fragmenstein_mode>  (716) 
expansion

>  <fragmenstein_error>  (716) 


$$$$
C2823-P98
     RDKit          3D

 61 64  0  0  0  0  0  0  0  0999 V2000
   13.8328   -5.3084   18.2537 O   0  0  0  0  0  0  0  0  0  0  0  0
   14.2111   -4.4462   17.4737 C   0  0  0  0  0  0  0  0  0  0  0  0
   13.2032   -3.6500   16.7262 C   0  0  0  0  0  0  0  0  0  0  0  0
   13.6511   -2.7063   15.8956 C   0  0  0  0  0  0  0  0  0  0  0  0
   14.9928   -2.5076   15.7345 N   0  0  0  0  0  0  0  0  0  0  0  0
   15.8950   -3.2993   16.4051 C   0  0  0  0  0  0  0  0  0  0  0  0
   17.3751   -3.1050   16.1710 C   0  0  0  0  0  0  0  0  0  0  0  0
   18.0595   -2.6515   17.4623 C   0  0  0  0  0  0  0  0  0  0  0  0
   19.3516   -2.0384   17.1628 N   0  0  0  0  0  0  0  0  0  0  0  0
   20.3586   -1.5644   18.4278 S   0  0  0  0  0  0  0  0  0  0  0  0
   20.4133   -2.6554   19.3649 O   0  0  0  0  0  0  0  0  0  0  0  0
   19.8825   -0.1287   18.6577 N   0  0  0  0  0  0  0  0  0  0  0  0
   20.2703    0.5257   19.9304 C   0  0  0  0  0  0  0  0  0  0  0  0
   19.2933    1.6634   20.2495 C   0  0  0  0  0  0  0  0  0  0  0  0
   18.1746    1.2694   21.2419 C   0  0  0  0  0  0  0  0  0  0  0  0
   18.8337    0.9546   22.4786 O   0  0  0  0  0  0  0  0  0  0  0  0
   17.3683    0.0559   20.7555 C   0  0  0  0  0  0  0  0  0  0  0  0
   16.1254   -0.2118   21.6052 C   0  0  0  0  0  0  0  0  0  0  0  0
   15.3011    0.9929   21.7086 N   0  0  0  0  0  0  0  0  0  0  0  0
   13.9867    0.7413   22.3135 C   0  0  0  0  0  0  0  0  0  0  0  0
   14.0339    0.3165   23.7552 C   0  0  0  0  0  0  0  0  0  0  0  0
   14.0567    1.2116   24.8796 C   0  0  0  0  0  0  0  0  0  0  0  0
   14.0816    0.5518   26.0879 C   0  0  0  0  0  0  0  0  0  0  0  0
   14.0499   -1.1438   25.8906 S   0  0  0  0  0  0  0  0  0  0  0  0
   13.9982   -0.9979   24.1890 C   0  0  0  0  0  0  0  0  0  0  0  0
   16.0185    2.1123   22.3107 C   0  0  0  0  0  0  0  0  0  0  0  0
   17.2438    2.4733   21.4719 C   0  0  0  0  0  0  0  0  0  0  0  0
   21.9578   -1.3108   17.7526 C   0  0  0  0  0  0  0  0  0  0  0  0
   22.6532   -0.2224   17.2578 C   0  0  0  0  0  0  0  0  0  0  0  0
   23.9407   -0.6214   16.8048 C   0  0  0  0  0  0  0  0  0  0  0  0
   24.2449   -1.9113   16.9153 N   0  0  0  0  0  0  0  0  0  0  0  0
   22.9422   -2.6959   17.5889 S   0  0  0  0  0  0  0  0  0  0  0  0
   15.5435   -4.2216   17.2398 N   0  0  0  0  0  0  0  0  0  0  0  0
   12.1638   -3.8976   16.8732 H   0  0  0  0  0  0  0  0  0  0  0  0
   12.9957   -2.0899   15.2898 H   0  0  0  0  0  0  0  0  0  0  0  0
   15.3020   -1.8585   15.0190 H   0  0  0  0  0  0  0  0  0  0  0  0
   17.5054   -2.3577   15.3788 H   0  0  0  0  0  0  0  0  0  0  0  0
   17.8095   -4.0454   15.8130 H   0  0  0  0  0  0  0  0  0  0  0  0
   17.4295   -1.9342   18.0021 H   0  0  0  0  0  0  0  0  0  0  0  0
   18.1945   -3.5198   18.1177 H   0  0  0  0  0  0  0  0  0  0  0  0
   19.1729   -1.1529   16.7002 H   0  0  0  0  0  0  0  0  0  0  0  0
   20.3278   -0.1937   20.7542 H   0  0  0  0  0  0  0  0  0  0  0  0
   21.2744    0.9467   19.7998 H   0  0  0  0  0  0  0  0  0  0  0  0
   19.8793    2.4689   20.7135 H   0  0  0  0  0  0  0  0  0  0  0  0
   18.8611    2.0765   19.3289 H   0  0  0  0  0  0  0  0  0  0  0  0
   18.1723    0.6248   23.1119 H   0  0  0  0  0  0  0  0  0  0  0  0
   17.9830   -0.8514   20.7793 H   0  0  0  0  0  0  0  0  0  0  0  0
   17.0534    0.2158   19.7159 H   0  0  0  0  0  0  0  0  0  0  0  0
   15.5568   -1.0170   21.1234 H   0  0  0  0  0  0  0  0  0  0  0  0
   16.4283   -0.5788   22.5929 H   0  0  0  0  0  0  0  0  0  0  0  0
   13.3691    1.6448   22.2255 H   0  0  0  0  0  0  0  0  0  0  0  0
   13.4750   -0.0094   21.7110 H   0  0  0  0  0  0  0  0  0  0  0  0
   14.0625    2.2917   24.8001 H   0  0  0  0  0  0  0  0  0  0  0  0
   14.1108    0.9822   27.0793 H   0  0  0  0  0  0  0  0  0  0  0  0
   13.9400   -1.8894   23.5768 H   0  0  0  0  0  0  0  0  0  0  0  0
   15.3701    2.9959   22.3563 H   0  0  0  0  0  0  0  0  0  0  0  0
   16.3346    1.8887   23.3361 H   0  0  0  0  0  0  0  0  0  0  0  0
   17.7881    3.2775   21.9825 H   0  0  0  0  0  0  0  0  0  0  0  0
   16.9050    2.8712   20.5061 H   0  0  0  0  0  0  0  0  0  0  0  0
   22.2567    0.7833   17.2248 H   0  0  0  0  0  0  0  0  0  0  0  0
   24.6930    0.0283   16.3750 H   0  0  0  0  0  0  0  0  0  0  0  0
  1  2  2  0
  2  3  1  0
  3  4  2  0
  4  5  1  0
  5  6  1  0
  6  7  1  0
  7  8  1  0
  8  9  1  0
  9 10  1  0
 10 11  2  0
 10 12  2  0
 12 13  1  0
 13 14  1  0
 14 15  1  0
 15 16  1  0
 15 17  1  0
 17 18  1  0
 18 19  1  0
 19 20  1  0
 20 21  1  0
 21 22  1  0
 22 23  2  0
 23 24  1  0
 24 25  1  0
 19 26  1  0
 26 27  1  0
 10 28  1  0
 28 29  2  0
 29 30  1  0
 30 31  2  0
 31 32  1  0
  6 33  2  0
 33  2  1  0
 27 15  1  0
 32 28  1  0
 25 21  2  0
  3 34  1  0
  4 35  1  0
  5 36  1  0
  7 37  1  0
  7 38  1  0
  8 39  1  0
  8 40  1  0
  9 41  1  0
 13 42  1  0
 13 43  1  0
 14 44  1  0
 14 45  1  0
 16 46  1  0
 17 47  1  0
 17 48  1  0
 18 49  1  0
 18 50  1  0
 20 51  1  0
 20 52  1  0
 22 53  1  0
 23 54  1  0
 25 55  1  0
 26 56  1  0
 26 57  1  0
 27 58  1  0
 27 59  1  0
 29 60  1  0
 30 61  1  0
M  END
>  <Energy>  (717) 
-117.66878504385485

>  <compound_id>  (717) 
2823

>  <target_id>  (717) 
1

>  <reference_id>  (717) 
98

>  <inspiration_ids>  (717) 
[184, 98]

>  <energy_score>  (717) 
-137.58233332811272

>  <distance_score>  (717) 
1.141091046530542

>  <path>  (717) 
/opt/xchem-fragalysis-2/maxwin/BulkDock/SCRATCH/505736/C2823-P98/C2823-P98.minimised.mol

>  <scratch_subdir>  (717) 
/opt/xchem-fragalysis-2/maxwin/BulkDock/SCRATCH/505736/C2823-P98

>  <fragmenstein_runtime>  (717) 
2.623396396636963

>  <fragmenstein_outcome>  (717) 
too moved

>  <fragmenstein_mode>  (717) 
expansion

>  <fragmenstein_error>  (717) 


$$$$
C2825-P184
     RDKit          3D

 49 52  0  0  0  0  0  0  0  0999 V2000
   13.8613    3.0063   15.9164 C   0  0  0  0  0  0  0  0  0  0  0  0
   13.9251    1.5540   16.9168 S   0  0  0  0  0  0  0  0  0  0  0  0
   15.1948    0.9068   16.6885 O   0  0  0  0  0  0  0  0  0  0  0  0
   13.5091    1.9121   18.2525 O   0  0  0  0  0  0  0  0  0  0  0  0
   12.6883    0.6218   16.2255 N   0  0  0  0  0  0  0  0  0  0  0  0
   12.7245   -0.8057   16.4060 C   0  0  0  0  0  0  0  0  0  0  0  0
   11.9180   -1.5934   15.5903 C   0  0  0  0  0  0  0  0  0  0  0  0
   11.9012   -2.9761   15.7773 C   0  0  0  0  0  0  0  0  0  0  0  0
   12.7116   -3.5717   16.7585 C   0  0  0  0  0  0  0  0  0  0  0  0
   13.5435   -2.8081   17.5802 C   0  0  0  0  0  0  0  0  0  0  0  0
   14.5782   -3.4764   18.4427 C   0  0  0  0  0  0  0  0  0  0  0  0
   14.2951   -4.3516   19.4454 C   0  0  0  0  0  0  0  0  0  0  0  0
   13.0863   -4.4677   20.3067 C   0  0  0  0  0  0  0  0  0  0  0  0
   13.3954   -4.7938   21.7208 N   0  0  0  0  0  0  0  0  0  0  0  0
   14.1475   -3.5927   22.6671 S   0  0  0  0  0  0  0  0  0  0  0  0
   14.3003   -2.3994   21.8716 O   0  0  0  0  0  0  0  0  0  0  0  0
   15.2405   -4.2992   23.2961 O   0  0  0  0  0  0  0  0  0  0  0  0
   13.0582   -3.2332   23.9917 C   0  0  0  0  0  0  0  0  0  0  0  0
   11.8950   -3.7965   24.4779 C   0  0  0  0  0  0  0  0  0  0  0  0
   11.4586   -3.0908   25.6338 C   0  0  0  0  0  0  0  0  0  0  0  0
   12.2018   -2.0623   26.0335 N   0  0  0  0  0  0  0  0  0  0  0  0
   13.4926   -1.9206   24.9880 S   0  0  0  0  0  0  0  0  0  0  0  0
   15.4597   -5.1700   19.8670 C   0  0  0  0  0  0  0  0  0  0  0  0
   16.6821   -4.7773   19.8504 N   0  0  0  0  0  0  0  0  0  0  0  0
   16.8009   -3.5455   19.3088 N   0  0  0  0  0  0  0  0  0  0  0  0
   16.9697   -2.4192   20.1259 C   0  0  0  0  0  0  0  0  0  0  0  0
   17.1516   -2.3183   21.3240 O   0  0  0  0  0  0  0  0  0  0  0  0
   16.7962   -1.2367   19.2386 C   0  0  0  0  0  0  0  0  0  0  0  0
   17.0321    0.0433   19.6698 N   0  0  0  0  0  0  0  0  0  0  0  0
   16.3168   -1.7812   18.1123 C   0  0  0  0  0  0  0  0  0  0  0  0
   15.9593   -3.1295   18.2266 N   0  0  0  0  0  0  0  0  0  0  0  0
   13.4596   -1.4176   17.4323 C   0  0  0  0  0  0  0  0  0  0  0  0
   12.8723    3.4596   16.0076 H   0  0  0  0  0  0  0  0  0  0  0  0
   14.0721    2.7352   14.8802 H   0  0  0  0  0  0  0  0  0  0  0  0
   14.6210    3.7027   16.2779 H   0  0  0  0  0  0  0  0  0  0  0  0
   11.7702    1.0206   16.4190 H   0  0  0  0  0  0  0  0  0  0  0  0
   11.3157   -1.1520   14.7997 H   0  0  0  0  0  0  0  0  0  0  0  0
   11.2822   -3.6020   15.1361 H   0  0  0  0  0  0  0  0  0  0  0  0
   12.7166   -4.6526   16.8517 H   0  0  0  0  0  0  0  0  0  0  0  0
   12.4368   -5.2545   19.9311 H   0  0  0  0  0  0  0  0  0  0  0  0
   12.5493   -3.5272   20.3158 H   0  0  0  0  0  0  0  0  0  0  0  0
   13.8961   -5.6599   21.9088 H   0  0  0  0  0  0  0  0  0  0  0  0
   11.4053   -4.6520   24.0359 H   0  0  0  0  0  0  0  0  0  0  0  0
   10.5782   -3.3172   26.2216 H   0  0  0  0  0  0  0  0  0  0  0  0
   15.2414   -6.1771   20.2505 H   0  0  0  0  0  0  0  0  0  0  0  0
   16.4513    0.7288   19.1939 H   0  0  0  0  0  0  0  0  0  0  0  0
   16.9543    0.0935   20.6886 H   0  0  0  0  0  0  0  0  0  0  0  0
   16.0732   -1.2694   17.1958 H   0  0  0  0  0  0  0  0  0  0  0  0
   13.9999   -0.8058   18.1492 H   0  0  0  0  0  0  0  0  0  0  0  0
  1  2  1  0
  2  3  2  0
  2  4  2  0
  2  5  1  0
  5  6  1  0
  6  7  2  0
  7  8  1  0
  8  9  2  0
  9 10  1  0
 10 11  1  0
 11 12  2  0
 12 13  1  0
 13 14  1  0
 14 15  1  0
 15 16  2  0
 15 17  2  0
 15 18  1  0
 18 19  2  0
 19 20  1  0
 20 21  2  0
 21 22  1  0
 12 23  1  0
 23 24  2  0
 24 25  1  0
 25 26  1  0
 26 27  2  0
 26 28  1  0
 28 29  1  0
 28 30  2  0
 30 31  1  0
 10 32  2  0
 32  6  1  0
 31 11  1  0
 22 18  1  0
 31 25  1  0
  1 33  1  0
  1 34  1  0
  1 35  1  0
  5 36  1  0
  7 37  1  0
  8 38  1  0
  9 39  1  0
 13 40  1  0
 13 41  1  0
 14 42  1  0
 19 43  1  0
 20 44  1  0
 23 45  1  0
 29 46  1  0
 29 47  1  0
 30 48  1  0
 32 49  1  0
M  END
>  <Energy>  (718) 
22.16815209822985

>  <compound_id>  (718) 
2825

>  <target_id>  (718) 
1

>  <reference_id>  (718) 
184

>  <inspiration_ids>  (718) 
[184, 106]

>  <energy_score>  (718) 
-41.66305811645293

>  <distance_score>  (718) 
2.5496582249102686

>  <path>  (718) 
/opt/xchem-fragalysis-2/maxwin/BulkDock/SCRATCH/505736/C2825-P184/C2825-P184.minimised.mol

>  <scratch_subdir>  (718) 
/opt/xchem-fragalysis-2/maxwin/BulkDock/SCRATCH/505736/C2825-P184

>  <fragmenstein_runtime>  (718) 
2.901932716369629

>  <fragmenstein_outcome>  (718) 
too moved

>  <fragmenstein_mode>  (718) 
expansion

>  <fragmenstein_error>  (718) 


$$$$
C2825-P106
     RDKit          3D

 49 52  0  0  0  0  0  0  0  0999 V2000
   13.7796    3.2509   16.4512 C   0  0  0  0  0  0  0  0  0  0  0  0
   13.9687    1.5781   16.9873 S   0  0  0  0  0  0  0  0  0  0  0  0
   15.2596    1.0988   16.5446 O   0  0  0  0  0  0  0  0  0  0  0  0
   13.5772    1.4971   18.3736 O   0  0  0  0  0  0  0  0  0  0  0  0
   12.7754    0.7950   16.0692 N   0  0  0  0  0  0  0  0  0  0  0  0
   12.6927   -0.6387   16.1503 C   0  0  0  0  0  0  0  0  0  0  0  0
   11.6755   -1.2932   15.4554 C   0  0  0  0  0  0  0  0  0  0  0  0
   11.5817   -2.6889   15.5041 C   0  0  0  0  0  0  0  0  0  0  0  0
   12.5201   -3.4398   16.2195 C   0  0  0  0  0  0  0  0  0  0  0  0
   13.5855   -2.8004   16.8431 C   0  0  0  0  0  0  0  0  0  0  0  0
   14.7452   -3.5288   17.4043 C   0  0  0  0  0  0  0  0  0  0  0  0
   15.8807   -3.5891   16.6615 C   0  0  0  0  0  0  0  0  0  0  0  0
   16.1780   -2.8853   15.3713 C   0  0  0  0  0  0  0  0  0  0  0  0
   16.9874   -3.7049   14.4653 N   0  0  0  0  0  0  0  0  0  0  0  0
   18.0190   -2.8457   13.4335 S   0  0  0  0  0  0  0  0  0  0  0  0
   18.4361   -3.7503   12.3849 O   0  0  0  0  0  0  0  0  0  0  0  0
   18.9762   -2.1461   14.2606 O   0  0  0  0  0  0  0  0  0  0  0  0
   17.0907   -1.5641   12.6599 C   0  0  0  0  0  0  0  0  0  0  0  0
   17.0541   -0.1900   12.8015 C   0  0  0  0  0  0  0  0  0  0  0  0
   16.0573    0.3650   11.9527 C   0  0  0  0  0  0  0  0  0  0  0  0
   15.3580   -0.4865   11.2064 N   0  0  0  0  0  0  0  0  0  0  0  0
   15.9238   -2.0221   11.5067 S   0  0  0  0  0  0  0  0  0  0  0  0
   17.0275   -4.2052   17.3761 C   0  0  0  0  0  0  0  0  0  0  0  0
   17.1290   -4.3427   18.6584 N   0  0  0  0  0  0  0  0  0  0  0  0
   16.0506   -3.8978   19.3463 N   0  0  0  0  0  0  0  0  0  0  0  0
   16.1594   -2.7726   20.1760 C   0  0  0  0  0  0  0  0  0  0  0  0
   17.1343   -2.1473   20.5515 O   0  0  0  0  0  0  0  0  0  0  0  0
   14.7690   -2.3603   20.5160 C   0  0  0  0  0  0  0  0  0  0  0  0
   14.5056   -1.3676   21.4199 N   0  0  0  0  0  0  0  0  0  0  0  0
   14.0270   -3.1269   19.7052 C   0  0  0  0  0  0  0  0  0  0  0  0
   14.7520   -3.8724   18.7792 N   0  0  0  0  0  0  0  0  0  0  0  0
   13.6397   -1.4050   16.8283 C   0  0  0  0  0  0  0  0  0  0  0  0
   12.7704    3.5908   16.6915 H   0  0  0  0  0  0  0  0  0  0  0  0
   13.9645    3.3036   15.3767 H   0  0  0  0  0  0  0  0  0  0  0  0
   14.5116    3.8627   16.9828 H   0  0  0  0  0  0  0  0  0  0  0  0
   11.8663    1.2492   16.1508 H   0  0  0  0  0  0  0  0  0  0  0  0
   10.9560   -0.7399   14.8550 H   0  0  0  0  0  0  0  0  0  0  0  0
   10.7879   -3.1934   14.9557 H   0  0  0  0  0  0  0  0  0  0  0  0
   12.4411   -4.5229   16.2509 H   0  0  0  0  0  0  0  0  0  0  0  0
   16.7112   -1.9627   15.6303 H   0  0  0  0  0  0  0  0  0  0  0  0
   15.2677   -2.6029   14.8360 H   0  0  0  0  0  0  0  0  0  0  0  0
   16.4625   -4.3941   13.9134 H   0  0  0  0  0  0  0  0  0  0  0  0
   17.6918    0.3659   13.4775 H   0  0  0  0  0  0  0  0  0  0  0  0
   15.8141    1.4166   11.8650 H   0  0  0  0  0  0  0  0  0  0  0  0
   17.8717   -4.5358   16.7493 H   0  0  0  0  0  0  0  0  0  0  0  0
   15.2541   -1.2438   22.0992 H   0  0  0  0  0  0  0  0  0  0  0  0
   13.5651   -1.4143   21.8247 H   0  0  0  0  0  0  0  0  0  0  0  0
   12.9568   -3.1598   19.6247 H   0  0  0  0  0  0  0  0  0  0  0  0
   14.4711   -0.9520   17.3622 H   0  0  0  0  0  0  0  0  0  0  0  0
  1  2  1  0
  2  3  2  0
  2  4  2  0
  2  5  1  0
  5  6  1  0
  6  7  2  0
  7  8  1  0
  8  9  2  0
  9 10  1  0
 10 11  1  0
 11 12  2  0
 12 13  1  0
 13 14  1  0
 14 15  1  0
 15 16  2  0
 15 17  2  0
 15 18  1  0
 18 19  2  0
 19 20  1  0
 20 21  2  0
 21 22  1  0
 12 23  1  0
 23 24  2  0
 24 25  1  0
 25 26  1  0
 26 27  2  0
 26 28  1  0
 28 29  1  0
 28 30  2  0
 30 31  1  0
 10 32  2  0
 32  6  1  0
 31 11  1  0
 22 18  1  0
 31 25  1  0
  1 33  1  0
  1 34  1  0
  1 35  1  0
  5 36  1  0
  7 37  1  0
  8 38  1  0
  9 39  1  0
 13 40  1  0
 13 41  1  0
 14 42  1  0
 19 43  1  0
 20 44  1  0
 23 45  1  0
 29 46  1  0
 29 47  1  0
 30 48  1  0
 32 49  1  0
M  END
>  <Energy>  (719) 
-2.8182916506484723

>  <compound_id>  (719) 
2825

>  <target_id>  (719) 
1

>  <reference_id>  (719) 
106

>  <inspiration_ids>  (719) 
[184, 106]

>  <energy_score>  (719) 
-66.64950186533102

>  <distance_score>  (719) 
2.815779256482084

>  <path>  (719) 
/opt/xchem-fragalysis-2/maxwin/BulkDock/SCRATCH/505736/C2825-P106/C2825-P106.minimised.mol

>  <scratch_subdir>  (719) 
/opt/xchem-fragalysis-2/maxwin/BulkDock/SCRATCH/505736/C2825-P106

>  <fragmenstein_runtime>  (719) 
2.566462278366089

>  <fragmenstein_outcome>  (719) 
too moved

>  <fragmenstein_mode>  (719) 
expansion

>  <fragmenstein_error>  (719) 


$$$$
C2828-P184
     RDKit          3D

 49 52  0  0  0  0  0  0  0  0999 V2000
   13.3627    0.1523   12.6804 C   0  0  0  0  0  0  0  0  0  0  0  0
   12.9974   -0.9910   13.4534 O   0  0  0  0  0  0  0  0  0  0  0  0
   13.6157   -1.1180   14.6677 C   0  0  0  0  0  0  0  0  0  0  0  0
   14.9309   -0.6730   14.8645 C   0  0  0  0  0  0  0  0  0  0  0  0
   15.5483   -0.7762   16.1136 C   0  0  0  0  0  0  0  0  0  0  0  0
   14.8657   -1.3361   17.1933 C   0  0  0  0  0  0  0  0  0  0  0  0
   15.4723   -1.3786   18.5395 C   0  0  0  0  0  0  0  0  0  0  0  0
   15.7359   -0.2463   19.2295 C   0  0  0  0  0  0  0  0  0  0  0  0
   15.4960    1.1805   18.8787 C   0  0  0  0  0  0  0  0  0  0  0  0
   14.3361    1.6570   19.6517 N   0  0  0  0  0  0  0  0  0  0  0  0
   14.4798    3.1715   20.3730 S   0  0  0  0  0  0  0  0  0  0  0  0
   15.6901    3.1305   21.1620 O   0  0  0  0  0  0  0  0  0  0  0  0
   13.2030    3.4994   20.9606 O   0  0  0  0  0  0  0  0  0  0  0  0
   14.7758    4.3903   19.1486 C   0  0  0  0  0  0  0  0  0  0  0  0
   15.6432    5.4591   19.0344 C   0  0  0  0  0  0  0  0  0  0  0  0
   15.4435    6.1215   17.7903 C   0  0  0  0  0  0  0  0  0  0  0  0
   14.5075    5.6213   16.9868 N   0  0  0  0  0  0  0  0  0  0  0  0
   13.8144    4.3181   17.7456 S   0  0  0  0  0  0  0  0  0  0  0  0
   16.3741   -0.4726   20.5641 C   0  0  0  0  0  0  0  0  0  0  0  0
   16.5170   -1.6055   21.1690 N   0  0  0  0  0  0  0  0  0  0  0  0
   16.0403   -2.6569   20.4744 N   0  0  0  0  0  0  0  0  0  0  0  0
   16.1350   -3.9790   20.8811 C   0  0  0  0  0  0  0  0  0  0  0  0
   16.4710   -4.4626   21.9493 O   0  0  0  0  0  0  0  0  0  0  0  0
   15.7736   -4.7997   19.6684 C   0  0  0  0  0  0  0  0  0  0  0  0
   15.7483   -6.1617   19.6949 N   0  0  0  0  0  0  0  0  0  0  0  0
   15.5620   -3.9004   18.7000 C   0  0  0  0  0  0  0  0  0  0  0  0
   15.7089   -2.6071   19.1284 N   0  0  0  0  0  0  0  0  0  0  0  0
   13.5853   -1.8545   16.9718 C   0  0  0  0  0  0  0  0  0  0  0  0
   12.9468   -1.7483   15.7279 C   0  0  0  0  0  0  0  0  0  0  0  0
   11.6921   -2.2944   15.7561 O   0  0  0  0  0  0  0  0  0  0  0  0
   10.8788   -2.1511   14.6050 C   0  0  0  0  0  0  0  0  0  0  0  0
   12.5424    0.3733   11.9921 H   0  0  0  0  0  0  0  0  0  0  0  0
   13.5065    1.0430   13.3025 H   0  0  0  0  0  0  0  0  0  0  0  0
   14.2580   -0.0617   12.0889 H   0  0  0  0  0  0  0  0  0  0  0  0
   15.5044   -0.2408   14.0486 H   0  0  0  0  0  0  0  0  0  0  0  0
   16.5672   -0.4118   16.2297 H   0  0  0  0  0  0  0  0  0  0  0  0
   16.4003    1.7652   19.0783 H   0  0  0  0  0  0  0  0  0  0  0  0
   15.2684    1.3230   17.8195 H   0  0  0  0  0  0  0  0  0  0  0  0
   14.0172    1.0039   20.3722 H   0  0  0  0  0  0  0  0  0  0  0  0
   16.3633    5.7405   19.7921 H   0  0  0  0  0  0  0  0  0  0  0  0
   15.9852    6.9921   17.4398 H   0  0  0  0  0  0  0  0  0  0  0  0
   16.7440    0.4325   21.0754 H   0  0  0  0  0  0  0  0  0  0  0  0
   16.0023   -6.6108   18.8205 H   0  0  0  0  0  0  0  0  0  0  0  0
   16.2616   -6.5375   20.4954 H   0  0  0  0  0  0  0  0  0  0  0  0
   15.2880   -4.1161   17.6785 H   0  0  0  0  0  0  0  0  0  0  0  0
   13.0593   -2.3580   17.7796 H   0  0  0  0  0  0  0  0  0  0  0  0
    9.8967   -2.5678   14.8397 H   0  0  0  0  0  0  0  0  0  0  0  0
   11.2863   -2.7239   13.7666 H   0  0  0  0  0  0  0  0  0  0  0  0
   10.7250   -1.0958   14.3586 H   0  0  0  0  0  0  0  0  0  0  0  0
  1  2  1  0
  2  3  1  0
  3  4  2  0
  4  5  1  0
  5  6  2  0
  6  7  1  0
  7  8  2  0
  8  9  1  0
  9 10  1  0
 10 11  1  0
 11 12  2  0
 11 13  2  0
 11 14  1  0
 14 15  2  0
 15 16  1  0
 16 17  2  0
 17 18  1  0
  8 19  1  0
 19 20  2  0
 20 21  1  0
 21 22  1  0
 22 23  2  0
 22 24  1  0
 24 25  1  0
 24 26  2  0
 26 27  1  0
  6 28  1  0
 28 29  2  0
 29 30  1  0
 30 31  1  0
 29  3  1  0
 27  7  1  0
 18 14  1  0
 27 21  1  0
  1 32  1  0
  1 33  1  0
  1 34  1  0
  4 35  1  0
  5 36  1  0
  9 37  1  0
  9 38  1  0
 10 39  1  0
 15 40  1  0
 16 41  1  0
 19 42  1  0
 25 43  1  0
 25 44  1  0
 26 45  1  0
 28 46  1  0
 31 47  1  0
 31 48  1  0
 31 49  1  0
M  END
>  <Energy>  (720) 
47.533626603877707

>  <compound_id>  (720) 
2828

>  <target_id>  (720) 
1

>  <reference_id>  (720) 
184

>  <inspiration_ids>  (720) 
[184, 117]

>  <energy_score>  (720) 
-71.94879726322199

>  <distance_score>  (720) 
3.4450440938092224

>  <path>  (720) 
/opt/xchem-fragalysis-2/maxwin/BulkDock/SCRATCH/505736/C2828-P184/C2828-P184.minimised.mol

>  <scratch_subdir>  (720) 
/opt/xchem-fragalysis-2/maxwin/BulkDock/SCRATCH/505736/C2828-P184

>  <fragmenstein_runtime>  (720) 
5.178746223449707

>  <fragmenstein_outcome>  (720) 
too moved

>  <fragmenstein_mode>  (720) 
expansion

>  <fragmenstein_error>  (720) 


$$$$
C2828-P117
     RDKit          3D

 49 52  0  0  0  0  0  0  0  0999 V2000
   12.5934    0.9239   13.2911 C   0  0  0  0  0  0  0  0  0  0  0  0
   11.9940   -0.0237   14.1627 O   0  0  0  0  0  0  0  0  0  0  0  0
   12.7757   -0.5338   15.1608 C   0  0  0  0  0  0  0  0  0  0  0  0
   13.9934   -0.0013   15.5747 C   0  0  0  0  0  0  0  0  0  0  0  0
   14.6797   -0.5509   16.6687 C   0  0  0  0  0  0  0  0  0  0  0  0
   14.1828   -1.6691   17.3407 C   0  0  0  0  0  0  0  0  0  0  0  0
   14.7979   -2.2349   18.5519 C   0  0  0  0  0  0  0  0  0  0  0  0
   14.1780   -2.0868   19.7477 C   0  0  0  0  0  0  0  0  0  0  0  0
   14.4772   -0.9541   20.7183 C   0  0  0  0  0  0  0  0  0  0  0  0
   14.1762    0.3480   20.0788 N   0  0  0  0  0  0  0  0  0  0  0  0
   14.1129    1.6458   21.1893 S   0  0  0  0  0  0  0  0  0  0  0  0
   15.4326    1.7447   21.7629 O   0  0  0  0  0  0  0  0  0  0  0  0
   12.9189    1.5351   21.9917 O   0  0  0  0  0  0  0  0  0  0  0  0
   13.9307    3.1027   20.2265 C   0  0  0  0  0  0  0  0  0  0  0  0
   13.6928    3.3720   18.8932 C   0  0  0  0  0  0  0  0  0  0  0  0
   13.6633    4.7793   18.6793 C   0  0  0  0  0  0  0  0  0  0  0  0
   13.8860    5.5581   19.7348 N   0  0  0  0  0  0  0  0  0  0  0  0
   14.0830    4.5784   21.0663 S   0  0  0  0  0  0  0  0  0  0  0  0
   14.1166   -3.4302   20.4027 C   0  0  0  0  0  0  0  0  0  0  0  0
   15.0372   -4.3366   20.2795 N   0  0  0  0  0  0  0  0  0  0  0  0
   16.1561   -3.8380   19.6427 N   0  0  0  0  0  0  0  0  0  0  0  0
   16.9802   -3.0463   20.4740 C   0  0  0  0  0  0  0  0  0  0  0  0
   16.9865   -2.9700   21.6911 O   0  0  0  0  0  0  0  0  0  0  0  0
   17.6913   -2.0579   19.6121 C   0  0  0  0  0  0  0  0  0  0  0  0
   18.4850   -1.0643   20.1236 N   0  0  0  0  0  0  0  0  0  0  0  0
   17.1359   -2.2378   18.4088 C   0  0  0  0  0  0  0  0  0  0  0  0
   15.9703   -3.0244   18.4442 N   0  0  0  0  0  0  0  0  0  0  0  0
   12.9954   -2.2375   16.8897 C   0  0  0  0  0  0  0  0  0  0  0  0
   12.2899   -1.6511   15.8393 C   0  0  0  0  0  0  0  0  0  0  0  0
   11.0402   -2.1207   15.5726 O   0  0  0  0  0  0  0  0  0  0  0  0
   11.1482   -3.3602   14.9059 C   0  0  0  0  0  0  0  0  0  0  0  0
   11.8810    1.1375   12.4881 H   0  0  0  0  0  0  0  0  0  0  0  0
   12.7931    1.8651   13.8133 H   0  0  0  0  0  0  0  0  0  0  0  0
   13.5042    0.5246   12.8324 H   0  0  0  0  0  0  0  0  0  0  0  0
   14.4251    0.8704   15.0933 H   0  0  0  0  0  0  0  0  0  0  0  0
   15.6032   -0.0773   16.9906 H   0  0  0  0  0  0  0  0  0  0  0  0
   13.9457   -1.0744   21.6594 H   0  0  0  0  0  0  0  0  0  0  0  0
   15.5373   -0.9428   20.9789 H   0  0  0  0  0  0  0  0  0  0  0  0
   14.9064    0.5613   19.3992 H   0  0  0  0  0  0  0  0  0  0  0  0
   13.5251    2.6187   18.1370 H   0  0  0  0  0  0  0  0  0  0  0  0
   13.4799    5.2735   17.7339 H   0  0  0  0  0  0  0  0  0  0  0  0
   13.1977   -3.6486   20.9713 H   0  0  0  0  0  0  0  0  0  0  0  0
   18.7828   -1.2883   21.0772 H   0  0  0  0  0  0  0  0  0  0  0  0
   19.2730   -0.8306   19.5259 H   0  0  0  0  0  0  0  0  0  0  0  0
   17.3030   -1.6262   17.5342 H   0  0  0  0  0  0  0  0  0  0  0  0
   12.5792   -3.1020   17.4030 H   0  0  0  0  0  0  0  0  0  0  0  0
   11.5773   -3.2432   13.9058 H   0  0  0  0  0  0  0  0  0  0  0  0
   10.1389   -3.7345   14.8211 H   0  0  0  0  0  0  0  0  0  0  0  0
   11.7090   -4.0833   15.5024 H   0  0  0  0  0  0  0  0  0  0  0  0
  1  2  1  0
  2  3  1  0
  3  4  2  0
  4  5  1  0
  5  6  2  0
  6  7  1  0
  7  8  2  0
  8  9  1  0
  9 10  1  0
 10 11  1  0
 11 12  2  0
 11 13  2  0
 11 14  1  0
 14 15  2  0
 15 16  1  0
 16 17  2  0
 17 18  1  0
  8 19  1  0
 19 20  2  0
 20 21  1  0
 21 22  1  0
 22 23  2  0
 22 24  1  0
 24 25  1  0
 24 26  2  0
 26 27  1  0
  6 28  1  0
 28 29  2  0
 29 30  1  0
 30 31  1  0
 29  3  1  0
 27  7  1  0
 18 14  1  0
 27 21  1  0
  1 32  1  0
  1 33  1  0
  1 34  1  0
  4 35  1  0
  5 36  1  0
  9 37  1  0
  9 38  1  0
 10 39  1  0
 15 40  1  0
 16 41  1  0
 19 42  1  0
 25 43  1  0
 25 44  1  0
 26 45  1  0
 28 46  1  0
 31 47  1  0
 31 48  1  0
 31 49  1  0
M  END
>  <Energy>  (721) 
128.85802203433641

>  <compound_id>  (721) 
2828

>  <target_id>  (721) 
1

>  <reference_id>  (721) 
117

>  <inspiration_ids>  (721) 
[184, 117]

>  <energy_score>  (721) 
-60.43363209355027

>  <distance_score>  (721) 
2.218471979426076

>  <path>  (721) 
/opt/xchem-fragalysis-2/maxwin/BulkDock/SCRATCH/505736/C2828-P117/C2828-P117.minimised.mol

>  <scratch_subdir>  (721) 
/opt/xchem-fragalysis-2/maxwin/BulkDock/SCRATCH/505736/C2828-P117

>  <fragmenstein_runtime>  (721) 
2.273881673812866

>  <fragmenstein_outcome>  (721) 
too moved

>  <fragmenstein_mode>  (721) 
expansion

>  <fragmenstein_error>  (721) 


$$$$
C2832-P184
     RDKit          3D

 51 53  0  0  0  0  0  0  0  0999 V2000
   13.8657   -0.1580   19.9473 O   0  0  0  0  0  0  0  0  0  0  0  0
   14.4129    0.0434   18.9383 C   0  0  0  0  0  0  0  0  0  0  0  0
   15.7814    0.7145   18.9216 C   0  0  0  0  0  0  0  0  0  0  0  0
   16.2535    1.0383   20.2772 N   0  0  0  0  0  0  0  0  0  0  0  0
   16.3212    2.3799   20.6360 C   0  0  0  0  0  0  0  0  0  0  0  0
   15.9177    3.2909   19.9137 O   0  0  0  0  0  0  0  0  0  0  0  0
   16.9537    2.6740   21.9709 C   0  0  0  0  0  0  0  0  0  0  0  0
   17.8894    1.5990   22.4473 C   0  0  0  0  0  0  0  0  0  0  0  0
   18.7881    1.7975   23.2589 O   0  0  0  0  0  0  0  0  0  0  0  0
   17.6520    0.3376   21.9720 N   0  0  0  0  0  0  0  0  0  0  0  0
   16.3789    0.0677   21.3587 C   0  0  0  0  0  0  0  0  0  0  0  0
   16.1686   -1.4493   21.1691 C   0  0  0  0  0  0  0  0  0  0  0  0
   16.8903   -2.1162   20.0203 C   0  0  0  0  0  0  0  0  0  0  0  0
   16.0482   -2.3780   18.8383 N   0  0  0  0  0  0  0  0  0  0  0  0
   14.8284   -3.5421   18.8956 S   0  0  0  0  0  0  0  0  0  0  0  0
   13.7449   -3.1102   19.7319 O   0  0  0  0  0  0  0  0  0  0  0  0
   14.6331   -3.9196   17.5136 O   0  0  0  0  0  0  0  0  0  0  0  0
   15.4741   -4.9637   19.6581 C   0  0  0  0  0  0  0  0  0  0  0  0
   16.1620   -6.0642   19.2060 C   0  0  0  0  0  0  0  0  0  0  0  0
   16.5112   -6.8994   20.3017 C   0  0  0  0  0  0  0  0  0  0  0  0
   16.1554   -6.4911   21.5167 N   0  0  0  0  0  0  0  0  0  0  0  0
   15.2953   -5.0852   21.3532 S   0  0  0  0  0  0  0  0  0  0  0  0
   14.0242   -0.3464   17.4913 N   0  0  0  0  0  0  0  0  0  0  0  0
   12.9250   -1.1501   16.9967 C   0  0  0  0  0  0  0  0  0  0  0  0
   13.0042   -1.3158   15.5243 C   0  0  0  0  0  0  0  0  0  0  0  0
   12.1672   -0.5563   14.7061 C   0  0  0  0  0  0  0  0  0  0  0  0
   12.4907   -0.4103   13.3756 C   0  0  0  0  0  0  0  0  0  0  0  0
   13.6162   -1.0504   12.8696 C   0  0  0  0  0  0  0  0  0  0  0  0
   14.3589   -1.9301   13.6455 C   0  0  0  0  0  0  0  0  0  0  0  0
   14.0489   -2.0628   14.9809 C   0  0  0  0  0  0  0  0  0  0  0  0
   16.5282    0.0776   18.4452 H   0  0  0  0  0  0  0  0  0  0  0  0
   15.7017    1.6211   18.3127 H   0  0  0  0  0  0  0  0  0  0  0  0
   17.5333    3.5982   21.8706 H   0  0  0  0  0  0  0  0  0  0  0  0
   16.1648    2.8189   22.7151 H   0  0  0  0  0  0  0  0  0  0  0  0
   18.1539   -0.3790   22.4827 H   0  0  0  0  0  0  0  0  0  0  0  0
   15.6280    0.3647   22.1068 H   0  0  0  0  0  0  0  0  0  0  0  0
   15.1019   -1.6713   21.1550 H   0  0  0  0  0  0  0  0  0  0  0  0
   16.5193   -1.9336   22.0925 H   0  0  0  0  0  0  0  0  0  0  0  0
   17.3481   -3.0569   20.3432 H   0  0  0  0  0  0  0  0  0  0  0  0
   17.7388   -1.5020   19.6962 H   0  0  0  0  0  0  0  0  0  0  0  0
   16.5905   -2.5266   17.9849 H   0  0  0  0  0  0  0  0  0  0  0  0
   16.3949   -6.2616   18.1677 H   0  0  0  0  0  0  0  0  0  0  0  0
   17.0453   -7.8404   20.2361 H   0  0  0  0  0  0  0  0  0  0  0  0
   14.7705   -0.0841   16.8578 H   0  0  0  0  0  0  0  0  0  0  0  0
   12.8949   -2.1127   17.4989 H   0  0  0  0  0  0  0  0  0  0  0  0
   11.9959   -0.6458   17.2205 H   0  0  0  0  0  0  0  0  0  0  0  0
   11.3320    0.0080   15.1127 H   0  0  0  0  0  0  0  0  0  0  0  0
   11.8951    0.2344   12.7338 H   0  0  0  0  0  0  0  0  0  0  0  0
   13.8973   -0.8405   11.8404 H   0  0  0  0  0  0  0  0  0  0  0  0
   15.2143   -2.4437   13.2187 H   0  0  0  0  0  0  0  0  0  0  0  0
   14.7020   -2.6505   15.6105 H   0  0  0  0  0  0  0  0  0  0  0  0
  1  2  2  0
  2  3  1  0
  3  4  1  0
  4  5  1  0
  5  6  2  0
  5  7  1  0
  7  8  1  0
  8  9  2  0
  8 10  1  0
 10 11  1  0
 11 12  1  0
 12 13  1  0
 13 14  1  0
 14 15  1  0
 15 16  2  0
 15 17  2  0
 15 18  1  0
 18 19  2  0
 19 20  1  0
 20 21  2  0
 21 22  1  0
  2 23  1  0
 23 24  1  0
 24 25  1  0
 25 26  2  0
 26 27  1  0
 27 28  2  0
 28 29  1  0
 29 30  2  0
 11  4  1  0
 22 18  1  0
 30 25  1  0
  3 31  1  0
  3 32  1  0
  7 33  1  0
  7 34  1  0
 10 35  1  0
 11 36  1  0
 12 37  1  0
 12 38  1  0
 13 39  1  0
 13 40  1  0
 14 41  1  0
 19 42  1  0
 20 43  1  0
 23 44  1  0
 24 45  1  0
 24 46  1  0
 26 47  1  0
 27 48  1  0
 28 49  1  0
 29 50  1  0
 30 51  1  0
M  END
>  <Energy>  (722) 
-102.87787869051493

>  <compound_id>  (722) 
2832

>  <target_id>  (722) 
1

>  <reference_id>  (722) 
184

>  <inspiration_ids>  (722) 
[184, 124]

>  <energy_score>  (722) 
-13.729636036505397

>  <distance_score>  (722) 
2.5455151699795455

>  <path>  (722) 
/opt/xchem-fragalysis-2/maxwin/BulkDock/SCRATCH/505736/C2832-P184/C2832-P184.minimised.mol

>  <scratch_subdir>  (722) 
/opt/xchem-fragalysis-2/maxwin/BulkDock/SCRATCH/505736/C2832-P184

>  <fragmenstein_runtime>  (722) 
39.51187205314636

>  <fragmenstein_outcome>  (722) 
too moved

>  <fragmenstein_mode>  (722) 
expansion

>  <fragmenstein_error>  (722) 


$$$$
C2832-P124
     RDKit          3D

 51 53  0  0  0  0  0  0  0  0999 V2000
   13.4009    3.0956   18.7093 O   0  0  0  0  0  0  0  0  0  0  0  0
   14.4278    2.5367   18.6409 C   0  0  0  0  0  0  0  0  0  0  0  0
   15.3905    2.5746   19.8486 C   0  0  0  0  0  0  0  0  0  0  0  0
   16.1116    1.3718   20.2814 N   0  0  0  0  0  0  0  0  0  0  0  0
   17.3603    1.1936   19.7468 C   0  0  0  0  0  0  0  0  0  0  0  0
   17.6016    1.5266   18.5840 O   0  0  0  0  0  0  0  0  0  0  0  0
   18.4237    0.5858   20.6021 C   0  0  0  0  0  0  0  0  0  0  0  0
   18.1170    0.4914   22.0539 C   0  0  0  0  0  0  0  0  0  0  0  0
   18.9740    0.2519   22.8989 O   0  0  0  0  0  0  0  0  0  0  0  0
   16.8248    0.6516   22.4182 N   0  0  0  0  0  0  0  0  0  0  0  0
   15.7294    0.6958   21.5000 C   0  0  0  0  0  0  0  0  0  0  0  0
   15.0424   -0.6690   21.3303 C   0  0  0  0  0  0  0  0  0  0  0  0
   15.6531   -1.7248   20.4280 C   0  0  0  0  0  0  0  0  0  0  0  0
   14.9963   -1.7165   19.1104 N   0  0  0  0  0  0  0  0  0  0  0  0
   14.5415   -3.2168   18.4835 S   0  0  0  0  0  0  0  0  0  0  0  0
   13.6267   -3.8426   19.4109 O   0  0  0  0  0  0  0  0  0  0  0  0
   14.2244   -3.0381   17.0920 O   0  0  0  0  0  0  0  0  0  0  0  0
   15.9378   -4.2512   18.5906 C   0  0  0  0  0  0  0  0  0  0  0  0
   16.2984   -5.2254   19.4982 C   0  0  0  0  0  0  0  0  0  0  0  0
   17.5761   -5.7391   19.1711 C   0  0  0  0  0  0  0  0  0  0  0  0
   18.1898   -5.2016   18.1178 N   0  0  0  0  0  0  0  0  0  0  0  0
   17.1827   -4.0551   17.4576 S   0  0  0  0  0  0  0  0  0  0  0  0
   15.0834    1.7740   17.4531 N   0  0  0  0  0  0  0  0  0  0  0  0
   14.6487    1.6240   16.0685 C   0  0  0  0  0  0  0  0  0  0  0  0
   14.6737    0.2087   15.5154 C   0  0  0  0  0  0  0  0  0  0  0  0
   15.8604   -0.5162   15.5835 C   0  0  0  0  0  0  0  0  0  0  0  0
   16.0502   -1.6480   14.8028 C   0  0  0  0  0  0  0  0  0  0  0  0
   15.0379   -2.0994   13.9781 C   0  0  0  0  0  0  0  0  0  0  0  0
   13.7997   -1.4843   13.9901 C   0  0  0  0  0  0  0  0  0  0  0  0
   13.6415   -0.3112   14.7183 C   0  0  0  0  0  0  0  0  0  0  0  0
   16.1299    3.3526   19.6134 H   0  0  0  0  0  0  0  0  0  0  0  0
   14.8202    2.9585   20.7032 H   0  0  0  0  0  0  0  0  0  0  0  0
   18.6528   -0.4145   20.2234 H   0  0  0  0  0  0  0  0  0  0  0  0
   19.3171    1.2131   20.5004 H   0  0  0  0  0  0  0  0  0  0  0  0
   16.6421    0.5367   23.4092 H   0  0  0  0  0  0  0  0  0  0  0  0
   14.9960    1.3304   22.0131 H   0  0  0  0  0  0  0  0  0  0  0  0
   14.0267   -0.4640   20.9817 H   0  0  0  0  0  0  0  0  0  0  0  0
   14.9304   -1.1055   22.3326 H   0  0  0  0  0  0  0  0  0  0  0  0
   15.4923   -2.6905   20.9198 H   0  0  0  0  0  0  0  0  0  0  0  0
   16.7301   -1.6094   20.3054 H   0  0  0  0  0  0  0  0  0  0  0  0
   15.3756   -1.1022   18.3867 H   0  0  0  0  0  0  0  0  0  0  0  0
   15.6799   -5.5473   20.3260 H   0  0  0  0  0  0  0  0  0  0  0  0
   18.1024   -6.5246   19.7000 H   0  0  0  0  0  0  0  0  0  0  0  0
   16.0229    1.4776   17.7155 H   0  0  0  0  0  0  0  0  0  0  0  0
   15.3278    2.2379   15.4647 H   0  0  0  0  0  0  0  0  0  0  0  0
   13.6591    2.0765   15.9661 H   0  0  0  0  0  0  0  0  0  0  0  0
   16.7087   -0.1339   16.1479 H   0  0  0  0  0  0  0  0  0  0  0  0
   17.0172   -2.1434   14.7834 H   0  0  0  0  0  0  0  0  0  0  0  0
   15.2539   -2.9031   13.2836 H   0  0  0  0  0  0  0  0  0  0  0  0
   13.0011   -1.8362   13.3429 H   0  0  0  0  0  0  0  0  0  0  0  0
   12.7423    0.2591   14.5317 H   0  0  0  0  0  0  0  0  0  0  0  0
  1  2  2  0
  2  3  1  0
  3  4  1  0
  4  5  1  0
  5  6  2  0
  5  7  1  0
  7  8  1  0
  8  9  2  0
  8 10  1  0
 10 11  1  0
 11 12  1  0
 12 13  1  0
 13 14  1  0
 14 15  1  0
 15 16  2  0
 15 17  2  0
 15 18  1  0
 18 19  2  0
 19 20  1  0
 20 21  2  0
 21 22  1  0
  2 23  1  0
 23 24  1  0
 24 25  1  0
 25 26  2  0
 26 27  1  0
 27 28  2  0
 28 29  1  0
 29 30  2  0
 11  4  1  0
 22 18  1  0
 30 25  1  0
  3 31  1  0
  3 32  1  0
  7 33  1  0
  7 34  1  0
 10 35  1  0
 11 36  1  0
 12 37  1  0
 12 38  1  0
 13 39  1  0
 13 40  1  0
 14 41  1  0
 19 42  1  0
 20 43  1  0
 23 44  1  0
 24 45  1  0
 24 46  1  0
 26 47  1  0
 27 48  1  0
 28 49  1  0
 29 50  1  0
 30 51  1  0
M  END
>  <Energy>  (723) 
-111.32282801879064

>  <compound_id>  (723) 
2832

>  <target_id>  (723) 
1

>  <reference_id>  (723) 
124

>  <inspiration_ids>  (723) 
[184, 124]

>  <energy_score>  (723) 
-22.174585364781258

>  <distance_score>  (723) 
2.832436198071346

>  <path>  (723) 
/opt/xchem-fragalysis-2/maxwin/BulkDock/SCRATCH/505736/C2832-P124/C2832-P124.minimised.mol

>  <scratch_subdir>  (723) 
/opt/xchem-fragalysis-2/maxwin/BulkDock/SCRATCH/505736/C2832-P124

>  <fragmenstein_runtime>  (723) 
44.05773711204529

>  <fragmenstein_outcome>  (723) 
too moved

>  <fragmenstein_mode>  (723) 
expansion

>  <fragmenstein_error>  (723) 


$$$$
C2834-P184
     RDKit          3D

 48 52  0  0  0  0  0  0  0  0999 V2000
   14.1223   -1.0205   20.5048 O   0  0  0  0  0  0  0  0  0  0  0  0
   15.2420   -1.7372   19.9469 S   0  0  0  0  0  0  0  0  0  0  0  0
   15.9727   -2.7144   20.7244 O   0  0  0  0  0  0  0  0  0  0  0  0
   16.3763   -0.5032   19.6503 N   0  0  0  0  0  0  0  0  0  0  0  0
   17.1989   -0.6824   18.4359 C   0  0  0  0  0  0  0  0  0  0  0  0
   18.0447   -1.9479   18.5392 C   0  0  0  0  0  0  0  0  0  0  0  0
   18.8851   -2.0171   17.3095 C   0  0  0  0  0  0  0  0  0  0  0  0
   19.9095   -1.1053   17.3089 N   0  0  0  0  0  0  0  0  0  0  0  0
   20.5432   -0.9167   16.2026 C   0  0  0  0  0  0  0  0  0  0  0  0
   20.1881   -1.6620   15.0593 C   0  0  0  0  0  0  0  0  0  0  0  0
   20.5991   -1.6382   13.7491 C   0  0  0  0  0  0  0  0  0  0  0  0
   19.8932   -2.6753   13.0913 C   0  0  0  0  0  0  0  0  0  0  0  0
   19.0923   -3.2890   14.0325 C   0  0  0  0  0  0  0  0  0  0  0  0
   19.2440   -2.6271   15.2156 N   0  0  0  0  0  0  0  0  0  0  0  0
   18.5411   -2.8131   16.3424 N   0  0  0  0  0  0  0  0  0  0  0  0
   16.2740   -0.6858   17.2168 C   0  0  0  0  0  0  0  0  0  0  0  0
   15.2890   -1.8024   17.2655 C   0  0  0  0  0  0  0  0  0  0  0  0
   14.7915   -2.3708   18.3807 C   0  0  0  0  0  0  0  0  0  0  0  0
   13.4153   -3.3509   17.9910 S   0  0  0  0  0  0  0  0  0  0  0  0
   13.1344   -2.3550   16.4282 C   0  0  0  0  0  0  0  0  0  0  0  0
   12.2053   -3.1072   15.4904 C   0  0  0  0  0  0  0  0  0  0  0  0
   12.0003   -2.3906   14.1644 C   0  0  0  0  0  0  0  0  0  0  0  0
   11.4400   -0.9893   14.3704 C   0  0  0  0  0  0  0  0  0  0  0  0
   12.2851   -0.1780   15.3431 C   0  0  0  0  0  0  0  0  0  0  0  0
   12.5197   -0.9516   16.6426 C   0  0  0  0  0  0  0  0  0  0  0  0
   14.5922   -2.1916   15.9953 C   0  0  0  0  0  0  0  0  0  0  0  0
   16.9095   -0.3419   20.5072 H   0  0  0  0  0  0  0  0  0  0  0  0
   17.8501    0.1984   18.3674 H   0  0  0  0  0  0  0  0  0  0  0  0
   18.6972   -1.8980   19.4194 H   0  0  0  0  0  0  0  0  0  0  0  0
   17.4738   -2.8768   18.6193 H   0  0  0  0  0  0  0  0  0  0  0  0
   21.3598   -0.1788   16.1481 H   0  0  0  0  0  0  0  0  0  0  0  0
   21.3350   -0.9750   13.3123 H   0  0  0  0  0  0  0  0  0  0  0  0
   19.9819   -2.9703   12.0525 H   0  0  0  0  0  0  0  0  0  0  0  0
   18.4427   -4.1445   13.9575 H   0  0  0  0  0  0  0  0  0  0  0  0
   16.8572   -0.7354   16.2914 H   0  0  0  0  0  0  0  0  0  0  0  0
   15.7205    0.2615   17.1702 H   0  0  0  0  0  0  0  0  0  0  0  0
   12.5791   -4.0959   15.2928 H   0  0  0  0  0  0  0  0  0  0  0  0
   11.2268   -3.2489   15.9625 H   0  0  0  0  0  0  0  0  0  0  0  0
   12.9498   -2.3326   13.6188 H   0  0  0  0  0  0  0  0  0  0  0  0
   11.3177   -2.9746   13.5395 H   0  0  0  0  0  0  0  0  0  0  0  0
   11.3810   -0.4637   13.4111 H   0  0  0  0  0  0  0  0  0  0  0  0
   10.4160   -1.0627   14.7579 H   0  0  0  0  0  0  0  0  0  0  0  0
   11.7710    0.7638   15.5694 H   0  0  0  0  0  0  0  0  0  0  0  0
   13.2361    0.0960   14.8752 H   0  0  0  0  0  0  0  0  0  0  0  0
   11.5365   -1.0752   17.0773 H   0  0  0  0  0  0  0  0  0  0  0  0
   13.1086   -0.3280   17.3223 H   0  0  0  0  0  0  0  0  0  0  0  0
   14.7133   -1.4265   15.2230 H   0  0  0  0  0  0  0  0  0  0  0  0
   15.0494   -3.0991   15.5956 H   0  0  0  0  0  0  0  0  0  0  0  0
  1  2  2  0
  2  3  2  0
  2  4  1  0
  4  5  1  0
  5  6  1  0
  6  7  1  0
  7  8  1  0
  8  9  2  0
  9 10  1  0
 10 11  2  0
 11 12  1  0
 12 13  2  0
 13 14  1  0
 14 15  1  0
  5 16  1  0
 16 17  1  0
 17 18  2  0
 18 19  1  0
 19 20  1  0
 20 21  1  0
 21 22  1  0
 22 23  1  0
 23 24  1  0
 24 25  1  0
 20 26  1  0
 18  2  1  0
 25 20  1  0
 15  7  2  0
 26 17  1  0
 14 10  1  0
  4 27  1  0
  5 28  1  0
  6 29  1  0
  6 30  1  0
  9 31  1  0
 11 32  1  0
 12 33  1  0
 13 34  1  0
 16 35  1  0
 16 36  1  0
 21 37  1  0
 21 38  1  0
 22 39  1  0
 22 40  1  0
 23 41  1  0
 23 42  1  0
 24 43  1  0
 24 44  1  0
 25 45  1  0
 25 46  1  0
 26 47  1  0
 26 48  1  0
M  END
>  <Energy>  (724) 
-16.534729489534332

>  <compound_id>  (724) 
2834

>  <target_id>  (724) 
1

>  <reference_id>  (724) 
184

>  <inspiration_ids>  (724) 
[184, 191]

>  <energy_score>  (724) 
-60.24242144038051

>  <distance_score>  (724) 
1.8881941049203825

>  <path>  (724) 
/opt/xchem-fragalysis-2/maxwin/BulkDock/SCRATCH/505736/C2834-P184/C2834-P184.minimised.mol

>  <scratch_subdir>  (724) 
/opt/xchem-fragalysis-2/maxwin/BulkDock/SCRATCH/505736/C2834-P184

>  <fragmenstein_runtime>  (724) 
28.502028942108154

>  <fragmenstein_outcome>  (724) 
too moved

>  <fragmenstein_mode>  (724) 
expansion

>  <fragmenstein_error>  (724) 


$$$$
C2834-P191
     RDKit          3D

 48 52  0  0  0  0  0  0  0  0999 V2000
   14.6152   -0.8154   20.3446 O   0  0  0  0  0  0  0  0  0  0  0  0
   15.5745   -1.8956   20.2160 S   0  0  0  0  0  0  0  0  0  0  0  0
   16.0368   -2.6339   21.3676 O   0  0  0  0  0  0  0  0  0  0  0  0
   16.9659   -1.1079   19.6001 N   0  0  0  0  0  0  0  0  0  0  0  0
   16.7592   -0.6235   18.2087 C   0  0  0  0  0  0  0  0  0  0  0  0
   17.8835    0.3098   17.7845 C   0  0  0  0  0  0  0  0  0  0  0  0
   18.8177   -0.4237   16.8663 C   0  0  0  0  0  0  0  0  0  0  0  0
   19.7882   -1.1700   17.4945 N   0  0  0  0  0  0  0  0  0  0  0  0
   20.4504   -2.0171   16.7784 C   0  0  0  0  0  0  0  0  0  0  0  0
   20.1701   -2.1367   15.3970 C   0  0  0  0  0  0  0  0  0  0  0  0
   20.6589   -2.9298   14.3874 C   0  0  0  0  0  0  0  0  0  0  0  0
   19.9174   -2.6124   13.2211 C   0  0  0  0  0  0  0  0  0  0  0  0
   19.0215   -1.6243   13.5661 C   0  0  0  0  0  0  0  0  0  0  0  0
   19.2171   -1.3209   14.8833 N   0  0  0  0  0  0  0  0  0  0  0  0
   18.5338   -0.4187   15.5974 N   0  0  0  0  0  0  0  0  0  0  0  0
   16.6161   -1.8593   17.3027 C   0  0  0  0  0  0  0  0  0  0  0  0
   15.5319   -2.7722   17.7016 C   0  0  0  0  0  0  0  0  0  0  0  0
   15.0202   -2.9348   18.9322 C   0  0  0  0  0  0  0  0  0  0  0  0
   13.4412   -3.6279   18.7804 S   0  0  0  0  0  0  0  0  0  0  0  0
   13.2562   -2.8998   17.0543 C   0  0  0  0  0  0  0  0  0  0  0  0
   12.1588   -3.5707   16.2355 C   0  0  0  0  0  0  0  0  0  0  0  0
   11.4020   -2.6562   15.2642 C   0  0  0  0  0  0  0  0  0  0  0  0
   12.3358   -1.6856   14.5611 C   0  0  0  0  0  0  0  0  0  0  0  0
   13.0847   -0.8022   15.5553 C   0  0  0  0  0  0  0  0  0  0  0  0
   13.0622   -1.3608   16.9828 C   0  0  0  0  0  0  0  0  0  0  0  0
   14.6643   -3.2934   16.6077 C   0  0  0  0  0  0  0  0  0  0  0  0
   17.2248   -0.3839   20.2725 H   0  0  0  0  0  0  0  0  0  0  0  0
   15.8409   -0.0229   18.1950 H   0  0  0  0  0  0  0  0  0  0  0  0
   18.4385    0.7173   18.6365 H   0  0  0  0  0  0  0  0  0  0  0  0
   17.4675    1.1599   17.2293 H   0  0  0  0  0  0  0  0  0  0  0  0
   21.2312   -2.6431   17.2396 H   0  0  0  0  0  0  0  0  0  0  0  0
   21.4392   -3.6758   14.4746 H   0  0  0  0  0  0  0  0  0  0  0  0
   20.0230   -3.0587   12.2396 H   0  0  0  0  0  0  0  0  0  0  0  0
   18.2778   -1.0973   12.9858 H   0  0  0  0  0  0  0  0  0  0  0  0
   17.5208   -2.4760   17.2869 H   0  0  0  0  0  0  0  0  0  0  0  0
   16.4212   -1.5057   16.2845 H   0  0  0  0  0  0  0  0  0  0  0  0
   12.6236   -4.3220   15.6252 H   0  0  0  0  0  0  0  0  0  0  0  0
   11.4463   -4.1017   16.8631 H   0  0  0  0  0  0  0  0  0  0  0  0
   10.8807   -3.2706   14.5238 H   0  0  0  0  0  0  0  0  0  0  0  0
   10.6340   -2.0848   15.7955 H   0  0  0  0  0  0  0  0  0  0  0  0
   13.0590   -2.2522   13.9613 H   0  0  0  0  0  0  0  0  0  0  0  0
   11.7753   -1.0601   13.8571 H   0  0  0  0  0  0  0  0  0  0  0  0
   12.6341    0.1981   15.5664 H   0  0  0  0  0  0  0  0  0  0  0  0
   14.1172   -0.6629   15.2147 H   0  0  0  0  0  0  0  0  0  0  0  0
   12.0792   -1.1181   17.3700 H   0  0  0  0  0  0  0  0  0  0  0  0
   13.7684   -0.7961   17.5954 H   0  0  0  0  0  0  0  0  0  0  0  0
   14.9112   -2.8736   15.6280 H   0  0  0  0  0  0  0  0  0  0  0  0
   14.8203   -4.3774   16.5513 H   0  0  0  0  0  0  0  0  0  0  0  0
  1  2  2  0
  2  3  2  0
  2  4  1  0
  4  5  1  0
  5  6  1  0
  6  7  1  0
  7  8  1  0
  8  9  2  0
  9 10  1  0
 10 11  2  0
 11 12  1  0
 12 13  2  0
 13 14  1  0
 14 15  1  0
  5 16  1  0
 16 17  1  0
 17 18  2  0
 18 19  1  0
 19 20  1  0
 20 21  1  0
 21 22  1  0
 22 23  1  0
 23 24  1  0
 24 25  1  0
 20 26  1  0
 18  2  1  0
 25 20  1  0
 15  7  2  0
 26 17  1  0
 14 10  1  0
  4 27  1  0
  5 28  1  0
  6 29  1  0
  6 30  1  0
  9 31  1  0
 11 32  1  0
 12 33  1  0
 13 34  1  0
 16 35  1  0
 16 36  1  0
 21 37  1  0
 21 38  1  0
 22 39  1  0
 22 40  1  0
 23 41  1  0
 23 42  1  0
 24 43  1  0
 24 44  1  0
 25 45  1  0
 25 46  1  0
 26 47  1  0
 26 48  1  0
M  END
>  <Energy>  (725) 
2.666046888796787

>  <compound_id>  (725) 
2834

>  <target_id>  (725) 
1

>  <reference_id>  (725) 
191

>  <inspiration_ids>  (725) 
[184, 191]

>  <energy_score>  (725) 
-41.041645062050776

>  <distance_score>  (725) 
1.7602888697192076

>  <path>  (725) 
/opt/xchem-fragalysis-2/maxwin/BulkDock/SCRATCH/505736/C2834-P191/C2834-P191.minimised.mol

>  <scratch_subdir>  (725) 
/opt/xchem-fragalysis-2/maxwin/BulkDock/SCRATCH/505736/C2834-P191

>  <fragmenstein_runtime>  (725) 
17.552058696746826

>  <fragmenstein_outcome>  (725) 
too moved

>  <fragmenstein_mode>  (725) 
expansion

>  <fragmenstein_error>  (725) 


$$$$
C2835-P185
     RDKit          3D

 47 50  0  0  0  0  0  0  0  0999 V2000
  -13.5955  -10.0920   37.2608 O   0  0  0  0  0  0  0  0  0  0  0  0
  -13.8848   -9.2485   38.1006 C   0  0  0  0  0  0  0  0  0  0  0  0
  -14.9013   -8.2539   37.5926 C   0  0  0  0  0  0  0  0  0  0  0  0
  -15.2054   -7.0613   38.0968 C   0  0  0  0  0  0  0  0  0  0  0  0
  -15.1030   -6.4987   39.3116 C   0  0  0  0  0  0  0  0  0  0  0  0
  -15.4481   -4.7516   39.3322 S   0  0  0  0  0  0  0  0  0  0  0  0
  -14.0534   -4.1823   38.4503 C   0  0  0  0  0  0  0  0  0  0  0  0
  -13.0132   -4.8862   38.0545 N   0  0  0  0  0  0  0  0  0  0  0  0
  -12.1446   -4.0044   37.4371 N   0  0  0  0  0  0  0  0  0  0  0  0
  -12.7087   -2.8184   37.5140 C   0  0  0  0  0  0  0  0  0  0  0  0
  -12.1025   -1.5948   37.1254 C   0  0  0  0  0  0  0  0  0  0  0  0
  -12.5922   -0.3098   37.2419 C   0  0  0  0  0  0  0  0  0  0  0  0
  -11.5795    0.5721   36.8015 C   0  0  0  0  0  0  0  0  0  0  0  0
  -10.5041   -0.1988   36.4213 C   0  0  0  0  0  0  0  0  0  0  0  0
  -10.8415   -1.5170   36.5942 N   0  0  0  0  0  0  0  0  0  0  0  0
  -13.9429   -2.8688   38.0993 O   0  0  0  0  0  0  0  0  0  0  0  0
  -14.9839   -7.0704   40.5275 C   0  0  0  0  0  0  0  0  0  0  0  0
  -14.7866   -8.3164   40.9791 C   0  0  0  0  0  0  0  0  0  0  0  0
  -14.2256   -9.3943   40.4168 C   0  0  0  0  0  0  0  0  0  0  0  0
  -14.2736  -10.7728   41.0560 C   0  0  0  0  0  0  0  0  0  0  0  0
  -15.2456  -11.6762   40.2739 C   0  0  0  0  0  0  0  0  0  0  0  0
  -14.6456  -12.2290   39.0273 N   0  0  0  0  0  0  0  0  0  0  0  0
  -15.7158  -12.9635   37.9564 S   0  0  0  0  0  0  0  0  0  0  0  0
  -16.9818  -13.0394   38.6452 O   0  0  0  0  0  0  0  0  0  0  0  0
  -15.0468  -14.1255   37.4192 O   0  0  0  0  0  0  0  0  0  0  0  0
  -15.9947  -11.8391   36.6344 C   0  0  0  0  0  0  0  0  0  0  0  0
  -16.7896  -10.7217   36.4829 C   0  0  0  0  0  0  0  0  0  0  0  0
  -16.6600  -10.2117   35.1590 C   0  0  0  0  0  0  0  0  0  0  0  0
  -15.8179  -10.8290   34.3414 N   0  0  0  0  0  0  0  0  0  0  0  0
  -15.1484  -12.0942   35.1766 S   0  0  0  0  0  0  0  0  0  0  0  0
  -13.3808   -9.3137   39.3467 N   0  0  0  0  0  0  0  0  0  0  0  0
  -15.1746   -8.4134   36.5558 H   0  0  0  0  0  0  0  0  0  0  0  0
  -15.6129   -6.4148   37.3116 H   0  0  0  0  0  0  0  0  0  0  0  0
  -13.5648   -0.0341   37.6299 H   0  0  0  0  0  0  0  0  0  0  0  0
  -11.6219    1.6533   36.7727 H   0  0  0  0  0  0  0  0  0  0  0  0
   -9.5321    0.0755   36.0306 H   0  0  0  0  0  0  0  0  0  0  0  0
  -10.2486   -2.3133   36.3943 H   0  0  0  0  0  0  0  0  0  0  0  0
  -15.2065   -6.3895   41.3582 H   0  0  0  0  0  0  0  0  0  0  0  0
  -15.1044   -8.4611   42.0161 H   0  0  0  0  0  0  0  0  0  0  0  0
  -14.6335  -10.6914   42.0892 H   0  0  0  0  0  0  0  0  0  0  0  0
  -13.2737  -11.2208   41.1061 H   0  0  0  0  0  0  0  0  0  0  0  0
  -16.1528  -11.1074   40.0372 H   0  0  0  0  0  0  0  0  0  0  0  0
  -15.5235  -12.5235   40.9114 H   0  0  0  0  0  0  0  0  0  0  0  0
  -14.0271  -11.5962   38.5120 H   0  0  0  0  0  0  0  0  0  0  0  0
  -17.4381  -10.3280   37.2534 H   0  0  0  0  0  0  0  0  0  0  0  0
  -17.2007   -9.3712   34.7594 H   0  0  0  0  0  0  0  0  0  0  0  0
  -12.6646  -10.0361   39.3316 H   0  0  0  0  0  0  0  0  0  0  0  0
  1  2  2  0
  2  3  1  0
  3  4  2  3
  4  5  1  0
  5  6  1  0
  6  7  1  0
  7  8  2  0
  8  9  1  0
  9 10  2  0
 10 11  1  0
 11 12  2  0
 12 13  1  0
 13 14  2  0
 14 15  1  0
 10 16  1  0
  5 17  2  3
 17 18  1  0
 18 19  2  3
 19 20  1  0
 20 21  1  0
 21 22  1  0
 22 23  1  0
 23 24  2  0
 23 25  2  0
 23 26  1  0
 26 27  2  0
 27 28  1  0
 28 29  2  0
 29 30  1  0
 19 31  1  0
 31  2  1  0
 16  7  1  0
 30 26  1  0
 15 11  1  0
  3 32  1  0
  4 33  1  0
 12 34  1  0
 13 35  1  0
 14 36  1  0
 15 37  1  0
 17 38  1  0
 18 39  1  0
 20 40  1  0
 20 41  1  0
 21 42  1  0
 21 43  1  0
 22 44  1  0
 27 45  1  0
 28 46  1  0
 31 47  1  0
M  END
>  <Energy>  (726) 
8.4484088624743983

>  <compound_id>  (726) 
2835

>  <target_id>  (726) 
1

>  <reference_id>  (726) 
185

>  <inspiration_ids>  (726) 
[185, 7]

>  <energy_score>  (726) 
-95.90278787687078

>  <distance_score>  (726) 
1.553389611764203

>  <path>  (726) 
/opt/xchem-fragalysis-2/maxwin/BulkDock/SCRATCH/505736/C2835-P185/C2835-P185.minimised.mol

>  <scratch_subdir>  (726) 
/opt/xchem-fragalysis-2/maxwin/BulkDock/SCRATCH/505736/C2835-P185

>  <fragmenstein_runtime>  (726) 
6.098362922668457

>  <fragmenstein_outcome>  (726) 
too moved

>  <fragmenstein_mode>  (726) 
expansion

>  <fragmenstein_error>  (726) 


$$$$
C2835-P7
     RDKit          3D

 47 50  0  0  0  0  0  0  0  0999 V2000
  -18.0601   -8.9048   35.8349 O   0  0  0  0  0  0  0  0  0  0  0  0
  -17.6667   -8.3603   36.8650 C   0  0  0  0  0  0  0  0  0  0  0  0
  -17.2647   -6.9421   36.5084 C   0  0  0  0  0  0  0  0  0  0  0  0
  -16.8571   -5.8794   37.1938 C   0  0  0  0  0  0  0  0  0  0  0  0
  -16.5545   -5.6402   38.4742 C   0  0  0  0  0  0  0  0  0  0  0  0
  -16.2336   -3.9322   38.8768 S   0  0  0  0  0  0  0  0  0  0  0  0
  -14.7121   -3.6473   38.1156 C   0  0  0  0  0  0  0  0  0  0  0  0
  -13.8758   -4.5342   37.6284 N   0  0  0  0  0  0  0  0  0  0  0  0
  -12.7727   -3.8312   37.1707 N   0  0  0  0  0  0  0  0  0  0  0  0
  -13.0232   -2.5617   37.4033 C   0  0  0  0  0  0  0  0  0  0  0  0
  -12.1448   -1.4836   37.1306 C   0  0  0  0  0  0  0  0  0  0  0  0
  -12.3146   -0.1434   37.4082 C   0  0  0  0  0  0  0  0  0  0  0  0
  -11.1406    0.5248   36.9970 C   0  0  0  0  0  0  0  0  0  0  0  0
  -10.2892   -0.4262   36.4796 C   0  0  0  0  0  0  0  0  0  0  0  0
  -10.9222   -1.6409   36.5362 N   0  0  0  0  0  0  0  0  0  0  0  0
  -14.2356   -2.3782   37.9946 O   0  0  0  0  0  0  0  0  0  0  0  0
  -16.5308   -6.4326   39.5515 C   0  0  0  0  0  0  0  0  0  0  0  0
  -16.8016   -7.6909   39.8817 C   0  0  0  0  0  0  0  0  0  0  0  0
  -17.2729   -8.8033   39.3120 C   0  0  0  0  0  0  0  0  0  0  0  0
  -17.4817   -9.9787   40.2983 C   0  0  0  0  0  0  0  0  0  0  0  0
  -17.8323  -11.3931   39.8097 C   0  0  0  0  0  0  0  0  0  0  0  0
  -17.2292  -11.7768   38.5186 N   0  0  0  0  0  0  0  0  0  0  0  0
  -15.5431  -11.7808   38.4062 S   0  0  0  0  0  0  0  0  0  0  0  0
  -15.1806  -13.1725   38.5004 O   0  0  0  0  0  0  0  0  0  0  0  0
  -14.9696  -10.7679   39.2546 O   0  0  0  0  0  0  0  0  0  0  0  0
  -15.2431  -11.2568   36.7677 C   0  0  0  0  0  0  0  0  0  0  0  0
  -14.6688  -10.1460   36.1893 C   0  0  0  0  0  0  0  0  0  0  0  0
  -14.8613  -10.1950   34.7789 C   0  0  0  0  0  0  0  0  0  0  0  0
  -15.4823  -11.2575   34.2833 N   0  0  0  0  0  0  0  0  0  0  0  0
  -15.9174  -12.2298   35.5425 S   0  0  0  0  0  0  0  0  0  0  0  0
  -17.6621   -9.0400   38.0282 N   0  0  0  0  0  0  0  0  0  0  0  0
  -17.3872   -6.7553   35.4396 H   0  0  0  0  0  0  0  0  0  0  0  0
  -16.7575   -5.0141   36.5297 H   0  0  0  0  0  0  0  0  0  0  0  0
  -13.1829    0.3017   37.8796 H   0  0  0  0  0  0  0  0  0  0  0  0
  -10.9296    1.5835   37.0825 H   0  0  0  0  0  0  0  0  0  0  0  0
   -9.2935   -0.3401   36.0644 H   0  0  0  0  0  0  0  0  0  0  0  0
  -10.5526   -2.5255   36.2117 H   0  0  0  0  0  0  0  0  0  0  0  0
  -16.2019   -5.9042   40.4586 H   0  0  0  0  0  0  0  0  0  0  0  0
  -16.5962   -7.8395   40.9518 H   0  0  0  0  0  0  0  0  0  0  0  0
  -18.2834   -9.6834   40.9915 H   0  0  0  0  0  0  0  0  0  0  0  0
  -16.5872  -10.0687   40.9303 H   0  0  0  0  0  0  0  0  0  0  0  0
  -17.5798  -12.1396   40.5712 H   0  0  0  0  0  0  0  0  0  0  0  0
  -18.9195  -11.4531   39.6732 H   0  0  0  0  0  0  0  0  0  0  0  0
  -17.5656  -12.6914   38.1992 H   0  0  0  0  0  0  0  0  0  0  0  0
  -14.1976   -9.3455   36.7434 H   0  0  0  0  0  0  0  0  0  0  0  0
  -14.5554   -9.4467   34.0695 H   0  0  0  0  0  0  0  0  0  0  0  0
  -17.9741   -9.9909   37.8426 H   0  0  0  0  0  0  0  0  0  0  0  0
  1  2  2  0
  2  3  1  0
  3  4  2  3
  4  5  1  0
  5  6  1  0
  6  7  1  0
  7  8  2  0
  8  9  1  0
  9 10  2  0
 10 11  1  0
 11 12  2  0
 12 13  1  0
 13 14  2  0
 14 15  1  0
 10 16  1  0
  5 17  2  3
 17 18  1  0
 18 19  2  3
 19 20  1  0
 20 21  1  0
 21 22  1  0
 22 23  1  0
 23 24  2  0
 23 25  2  0
 23 26  1  0
 26 27  2  0
 27 28  1  0
 28 29  2  0
 29 30  1  0
 19 31  1  0
 31  2  1  0
 16  7  1  0
 30 26  1  0
 15 11  1  0
  3 32  1  0
  4 33  1  0
 12 34  1  0
 13 35  1  0
 14 36  1  0
 15 37  1  0
 17 38  1  0
 18 39  1  0
 20 40  1  0
 20 41  1  0
 21 42  1  0
 21 43  1  0
 22 44  1  0
 27 45  1  0
 28 46  1  0
 31 47  1  0
M  END
>  <Energy>  (727) 
-2.7122594750652085

>  <compound_id>  (727) 
2835

>  <target_id>  (727) 
1

>  <reference_id>  (727) 
7

>  <inspiration_ids>  (727) 
[185, 7]

>  <energy_score>  (727) 
-107.06345621441119

>  <distance_score>  (727) 
1.7820984229868024

>  <path>  (727) 
/opt/xchem-fragalysis-2/maxwin/BulkDock/SCRATCH/505736/C2835-P7/C2835-P7.minimised.mol

>  <scratch_subdir>  (727) 
/opt/xchem-fragalysis-2/maxwin/BulkDock/SCRATCH/505736/C2835-P7

>  <fragmenstein_runtime>  (727) 
5.395025253295898

>  <fragmenstein_outcome>  (727) 
too moved

>  <fragmenstein_mode>  (727) 
expansion

>  <fragmenstein_error>  (727) 


$$$$
C2836-P185
     RDKit          3D

 43 47  0  0  0  0  0  0  0  0999 V2000
  -13.2744  -15.1282   34.5669 O   0  0  0  0  0  0  0  0  0  0  0  0
  -14.4252  -15.1905   35.4402 S   0  0  0  0  0  0  0  0  0  0  0  0
  -14.3600  -15.0076   36.8728 O   0  0  0  0  0  0  0  0  0  0  0  0
  -15.4212  -13.9473   34.8879 N   0  0  0  0  0  0  0  0  0  0  0  0
  -14.7522  -12.7831   34.2477 C   0  0  0  0  0  0  0  0  0  0  0  0
  -15.4389  -11.4368   34.3893 C   0  0  0  0  0  0  0  0  0  0  0  0
  -15.7131  -11.1031   35.8320 C   0  0  0  0  0  0  0  0  0  0  0  0
  -15.4194  -12.0991   36.7420 N   0  0  0  0  0  0  0  0  0  0  0  0
  -15.7109  -11.9316   37.9890 C   0  0  0  0  0  0  0  0  0  0  0  0
  -15.3339  -13.1137   39.2170 S   0  0  0  0  0  0  0  0  0  0  0  0
  -14.4259  -12.0229   40.2211 C   0  0  0  0  0  0  0  0  0  0  0  0
  -14.5755  -11.8982   41.5204 N   0  0  0  0  0  0  0  0  0  0  0  0
  -14.1008  -10.6433   41.8522 N   0  0  0  0  0  0  0  0  0  0  0  0
  -13.7013  -10.1003   40.7246 C   0  0  0  0  0  0  0  0  0  0  0  0
  -13.6230   -8.7130   40.4926 C   0  0  0  0  0  0  0  0  0  0  0  0
  -13.5256   -8.0572   39.2851 C   0  0  0  0  0  0  0  0  0  0  0  0
  -13.7133   -6.6847   39.5339 C   0  0  0  0  0  0  0  0  0  0  0  0
  -13.9213   -6.5485   40.8858 C   0  0  0  0  0  0  0  0  0  0  0  0
  -13.8262   -7.7867   41.4716 N   0  0  0  0  0  0  0  0  0  0  0  0
  -13.7154  -10.9884   39.6851 O   0  0  0  0  0  0  0  0  0  0  0  0
  -16.3107  -10.7232   38.3802 C   0  0  0  0  0  0  0  0  0  0  0  0
  -16.6758  -10.2661   39.5507 N   0  0  0  0  0  0  0  0  0  0  0  0
  -16.9889   -8.9739   39.2397 C   0  0  0  0  0  0  0  0  0  0  0  0
  -16.9083   -8.6485   37.9445 N   0  0  0  0  0  0  0  0  0  0  0  0
  -16.4586   -9.7873   37.4174 N   0  0  0  0  0  0  0  0  0  0  0  0
  -16.2253   -9.9514   36.1148 N   0  0  0  0  0  0  0  0  0  0  0  0
  -15.1087  -16.8003   35.3494 C   0  0  0  0  0  0  0  0  0  0  0  0
  -16.3363  -17.3693   35.6336 C   0  0  0  0  0  0  0  0  0  0  0  0
  -16.3055  -18.7681   35.3793 C   0  0  0  0  0  0  0  0  0  0  0  0
  -15.1493  -19.2750   34.9612 N   0  0  0  0  0  0  0  0  0  0  0  0
  -14.0151  -18.0584   34.9863 S   0  0  0  0  0  0  0  0  0  0  0  0
  -16.0142  -13.6909   35.6844 H   0  0  0  0  0  0  0  0  0  0  0  0
  -13.7842  -12.6399   34.7077 H   0  0  0  0  0  0  0  0  0  0  0  0
  -14.6401  -13.0066   33.1907 H   0  0  0  0  0  0  0  0  0  0  0  0
  -14.7891  -10.6528   33.9819 H   0  0  0  0  0  0  0  0  0  0  0  0
  -16.3621  -11.3857   33.8215 H   0  0  0  0  0  0  0  0  0  0  0  0
  -13.3877   -8.5144   38.3146 H   0  0  0  0  0  0  0  0  0  0  0  0
  -13.7105   -5.8848   38.8041 H   0  0  0  0  0  0  0  0  0  0  0  0
  -14.1102   -5.6708   41.4895 H   0  0  0  0  0  0  0  0  0  0  0  0
  -13.9624   -7.9938   42.4539 H   0  0  0  0  0  0  0  0  0  0  0  0
  -17.3004   -8.2465   39.9801 H   0  0  0  0  0  0  0  0  0  0  0  0
  -17.1977  -16.8182   35.9845 H   0  0  0  0  0  0  0  0  0  0  0  0
  -17.1367  -19.4535   35.4920 H   0  0  0  0  0  0  0  0  0  0  0  0
  1  2  2  0
  2  3  2  0
  2  4  1  0
  4  5  1  0
  5  6  1  0
  6  7  1  0
  7  8  1  0
  8  9  2  0
  9 10  1  0
 10 11  1  0
 11 12  2  0
 12 13  1  0
 13 14  2  0
 14 15  1  0
 15 16  2  0
 16 17  1  0
 17 18  2  0
 18 19  1  0
 14 20  1  0
  9 21  1  0
 21 22  2  0
 22 23  1  0
 23 24  2  0
 24 25  1  0
 25 26  1  0
  2 27  1  0
 27 28  2  0
 28 29  1  0
 29 30  2  0
 30 31  1  0
 26  7  2  0
 31 27  1  0
 20 11  1  0
 25 21  1  0
 19 15  1  0
  4 32  1  0
  5 33  1  0
  5 34  1  0
  6 35  1  0
  6 36  1  0
 16 37  1  0
 17 38  1  0
 18 39  1  0
 19 40  1  0
 23 41  1  0
 28 42  1  0
 29 43  1  0
M  END
>  <Energy>  (728) 
-100.73792146640295

>  <compound_id>  (728) 
2836

>  <target_id>  (728) 
1

>  <reference_id>  (728) 
185

>  <inspiration_ids>  (728) 
[185, 171]

>  <energy_score>  (728) 
-54.58125816166935

>  <distance_score>  (728) 
2.373339442609127

>  <path>  (728) 
/opt/xchem-fragalysis-2/maxwin/BulkDock/SCRATCH/505736/C2836-P185/C2836-P185.minimised.mol

>  <scratch_subdir>  (728) 
/opt/xchem-fragalysis-2/maxwin/BulkDock/SCRATCH/505736/C2836-P185

>  <fragmenstein_runtime>  (728) 
5.862824440002441

>  <fragmenstein_outcome>  (728) 
too moved

>  <fragmenstein_mode>  (728) 
expansion

>  <fragmenstein_error>  (728) 


$$$$
C2836-P171
     RDKit          3D

 43 47  0  0  0  0  0  0  0  0999 V2000
  -14.7671  -13.2431   33.7762 O   0  0  0  0  0  0  0  0  0  0  0  0
  -14.9309  -12.3439   32.6411 S   0  0  0  0  0  0  0  0  0  0  0  0
  -16.1849  -12.2500   31.9537 O   0  0  0  0  0  0  0  0  0  0  0  0
  -14.6039  -10.8174   33.3129 N   0  0  0  0  0  0  0  0  0  0  0  0
  -15.0011  -10.6052   34.7145 C   0  0  0  0  0  0  0  0  0  0  0  0
  -16.4681  -10.9095   34.9697 C   0  0  0  0  0  0  0  0  0  0  0  0
  -16.7116  -10.9116   36.4522 C   0  0  0  0  0  0  0  0  0  0  0  0
  -16.1076  -11.9442   37.1419 N   0  0  0  0  0  0  0  0  0  0  0  0
  -16.2880  -12.0023   38.4221 C   0  0  0  0  0  0  0  0  0  0  0  0
  -15.4929  -13.2001   39.3947 S   0  0  0  0  0  0  0  0  0  0  0  0
  -14.5183  -12.0854   40.3097 C   0  0  0  0  0  0  0  0  0  0  0  0
  -13.9396  -12.3624   41.4570 N   0  0  0  0  0  0  0  0  0  0  0  0
  -13.3705  -11.1828   41.9035 N   0  0  0  0  0  0  0  0  0  0  0  0
  -13.6284  -10.2678   40.9921 C   0  0  0  0  0  0  0  0  0  0  0  0
  -13.3098   -8.8870   41.0910 C   0  0  0  0  0  0  0  0  0  0  0  0
  -12.6987   -8.1761   42.1017 C   0  0  0  0  0  0  0  0  0  0  0  0
  -12.6383   -6.8213   41.6918 C   0  0  0  0  0  0  0  0  0  0  0  0
  -13.2172   -6.7402   40.4457 C   0  0  0  0  0  0  0  0  0  0  0  0
  -13.6190   -7.9987   40.0907 N   0  0  0  0  0  0  0  0  0  0  0  0
  -14.2984  -10.7916   39.9188 O   0  0  0  0  0  0  0  0  0  0  0  0
  -17.0887  -11.0350   39.0690 C   0  0  0  0  0  0  0  0  0  0  0  0
  -17.3786  -10.8132   40.3292 N   0  0  0  0  0  0  0  0  0  0  0  0
  -18.0549   -9.6246   40.2439 C   0  0  0  0  0  0  0  0  0  0  0  0
  -18.1828   -9.1164   39.0118 N   0  0  0  0  0  0  0  0  0  0  0  0
  -17.5790  -10.0560   38.2805 N   0  0  0  0  0  0  0  0  0  0  0  0
  -17.4265   -9.9612   36.9634 N   0  0  0  0  0  0  0  0  0  0  0  0
  -13.5034  -13.0603   31.3141 C   0  0  0  0  0  0  0  0  0  0  0  0
  -12.6866  -14.4888   32.0193 C   0  0  0  0  0  0  0  0  0  0  0  0
  -12.4248  -15.3045   30.8572 C   0  0  0  0  0  0  0  0  0  0  0  0
  -12.0518  -14.7094   29.6844 N   0  0  0  0  0  0  0  0  0  0  0  0
  -13.0299  -12.9033   29.6159 S   0  0  0  0  0  0  0  0  0  0  0  0
  -14.9351  -10.1178   32.6494 H   0  0  0  0  0  0  0  0  0  0  0  0
  -14.3366  -11.1977   35.3538 H   0  0  0  0  0  0  0  0  0  0  0  0
  -14.7966   -9.5573   34.9650 H   0  0  0  0  0  0  0  0  0  0  0  0
  -17.1051  -10.1619   34.4879 H   0  0  0  0  0  0  0  0  0  0  0  0
  -16.7824  -11.8884   34.5977 H   0  0  0  0  0  0  0  0  0  0  0  0
  -12.3335   -8.5878   43.0346 H   0  0  0  0  0  0  0  0  0  0  0  0
  -12.2094   -5.9941   42.2432 H   0  0  0  0  0  0  0  0  0  0  0  0
  -13.3587   -5.8993   39.7796 H   0  0  0  0  0  0  0  0  0  0  0  0
  -14.0674   -8.2372   39.2169 H   0  0  0  0  0  0  0  0  0  0  0  0
  -18.4608   -9.1118   41.1084 H   0  0  0  0  0  0  0  0  0  0  0  0
  -12.9844  -14.8420   33.0033 H   0  0  0  0  0  0  0  0  0  0  0  0
  -12.4411  -16.3594   30.8772 H   0  0  0  0  0  0  0  0  0  0  0  0
  1  2  2  0
  2  3  2  0
  2  4  1  0
  4  5  1  0
  5  6  1  0
  6  7  1  0
  7  8  1  0
  8  9  2  0
  9 10  1  0
 10 11  1  0
 11 12  2  0
 12 13  1  0
 13 14  2  0
 14 15  1  0
 15 16  2  0
 16 17  1  0
 17 18  2  0
 18 19  1  0
 14 20  1  0
  9 21  1  0
 21 22  2  0
 22 23  1  0
 23 24  2  0
 24 25  1  0
 25 26  1  0
  2 27  1  0
 27 28  2  0
 28 29  1  0
 29 30  2  0
 30 31  1  0
 26  7  2  0
 31 27  1  0
 20 11  1  0
 25 21  1  0
 19 15  1  0
  4 32  1  0
  5 33  1  0
  5 34  1  0
  6 35  1  0
  6 36  1  0
 16 37  1  0
 17 38  1  0
 18 39  1  0
 19 40  1  0
 23 41  1  0
 28 42  1  0
 29 43  1  0
M  END
>  <Energy>  (729) 
0.64809692788451523

>  <compound_id>  (729) 
2836

>  <target_id>  (729) 
1

>  <reference_id>  (729) 
171

>  <inspiration_ids>  (729) 
[185, 171]

>  <energy_score>  (729) 
42.82207005490142

>  <distance_score>  (729) 
2.9275886067341963

>  <path>  (729) 
/opt/xchem-fragalysis-2/maxwin/BulkDock/SCRATCH/505736/C2836-P171/C2836-P171.minimised.mol

>  <scratch_subdir>  (729) 
/opt/xchem-fragalysis-2/maxwin/BulkDock/SCRATCH/505736/C2836-P171

>  <fragmenstein_runtime>  (729) 
8.100180387496948

>  <fragmenstein_outcome>  (729) 
too moved

>  <fragmenstein_mode>  (729) 
expansion

>  <fragmenstein_error>  (729) 


$$$$
C2838-P186
     RDKit          3D

 64 68  0  0  0  0  0  0  0  0999 V2000
    3.5771   -5.4811   27.0406 N   0  0  0  0  0  0  0  0  0  0  0  0
    3.6074   -5.3400   28.4924 C   0  0  0  0  0  0  0  0  0  0  0  0
    2.2352   -4.8623   29.0533 C   0  0  0  0  0  0  0  0  0  0  0  0
    2.2291   -4.3565   30.4436 N   0  0  0  0  0  0  0  0  0  0  0  0
    1.0023   -3.6488   30.8035 C   0  0  0  0  0  0  0  0  0  0  0  0
   -0.2490   -4.4934   30.6862 C   0  0  0  0  0  0  0  0  0  0  0  0
   -0.3247   -5.7028   31.5766 C   0  0  0  0  0  0  0  0  0  0  0  0
   -0.6455   -6.8163   30.9972 N   0  0  0  0  0  0  0  0  0  0  0  0
   -1.0390   -7.8808   31.7693 C   0  0  0  0  0  0  0  0  0  0  0  0
   -1.3951   -8.9396   31.2705 O   0  0  0  0  0  0  0  0  0  0  0  0
   -1.1314   -7.6755   33.2368 C   0  0  0  0  0  0  0  0  0  0  0  0
   -0.7043   -6.5246   33.7533 C   0  0  0  0  0  0  0  0  0  0  0  0
   -0.2311   -5.5383   32.9407 N   0  0  0  0  0  0  0  0  0  0  0  0
    0.9565   -2.3813   30.0814 N   0  0  0  0  0  0  0  0  0  0  0  0
   -0.4401   -1.4372   30.0302 S   0  0  0  0  0  0  0  0  0  0  0  0
   -1.5717   -2.2707   29.7131 O   0  0  0  0  0  0  0  0  0  0  0  0
   -0.1276   -0.2690   29.2530 O   0  0  0  0  0  0  0  0  0  0  0  0
   -0.7375   -0.8442   31.6434 C   0  0  0  0  0  0  0  0  0  0  0  0
   -0.0047   -0.7179   32.8026 C   0  0  0  0  0  0  0  0  0  0  0  0
   -0.7950   -0.0924   33.8073 C   0  0  0  0  0  0  0  0  0  0  0  0
   -2.0476    0.2201   33.4866 N   0  0  0  0  0  0  0  0  0  0  0  0
   -2.2990   -0.2430   31.9175 S   0  0  0  0  0  0  0  0  0  0  0  0
    4.7676   -4.4935   28.8982 C   0  0  0  0  0  0  0  0  0  0  0  0
    5.8804   -5.1561   29.3571 O   0  0  0  0  0  0  0  0  0  0  0  0
    6.7063   -4.1658   29.7887 C   0  0  0  0  0  0  0  0  0  0  0  0
    6.2199   -2.9498   29.6882 N   0  0  0  0  0  0  0  0  0  0  0  0
    5.0125   -3.1388   29.0303 C   0  0  0  0  0  0  0  0  0  0  0  0
    4.0889   -2.0470   28.7162 C   0  0  0  0  0  0  0  0  0  0  0  0
    3.3064   -2.1628   27.8213 O   0  0  0  0  0  0  0  0  0  0  0  0
    4.2611   -1.0003   29.6797 N   0  0  0  0  0  0  0  0  0  0  0  0
    3.5297    0.1260   29.9166 C   0  0  0  0  0  0  0  0  0  0  0  0
    3.2120    0.4540   31.1791 C   0  0  0  0  0  0  0  0  0  0  0  0
    2.2757    1.4145   31.4638 N   0  0  0  0  0  0  0  0  0  0  0  0
    1.5456    2.0812   30.4997 C   0  0  0  0  0  0  0  0  0  0  0  0
    0.5474    2.7278   30.7940 O   0  0  0  0  0  0  0  0  0  0  0  0
    2.0733    1.9804   29.1205 C   0  0  0  0  0  0  0  0  0  0  0  0
    1.6919    2.9334   28.1757 C   0  0  0  0  0  0  0  0  0  0  0  0
    2.2791    2.9121   26.9151 C   0  0  0  0  0  0  0  0  0  0  0  0
    3.1843    1.9104   26.5806 C   0  0  0  0  0  0  0  0  0  0  0  0
    3.5642    0.9601   27.5294 C   0  0  0  0  0  0  0  0  0  0  0  0
    3.0245    0.9863   28.8234 C   0  0  0  0  0  0  0  0  0  0  0  0
    2.7606   -5.9982   26.7270 H   0  0  0  0  0  0  0  0  0  0  0  0
    4.4134   -5.9490   26.6973 H   0  0  0  0  0  0  0  0  0  0  0  0
    3.7776   -6.3416   28.9034 H   0  0  0  0  0  0  0  0  0  0  0  0
    1.8212   -4.1246   28.3598 H   0  0  0  0  0  0  0  0  0  0  0  0
    1.5648   -5.7269   29.0143 H   0  0  0  0  0  0  0  0  0  0  0  0
    2.9897   -3.6977   30.5798 H   0  0  0  0  0  0  0  0  0  0  0  0
    1.1247   -3.3858   31.8610 H   0  0  0  0  0  0  0  0  0  0  0  0
   -1.1169   -3.9311   31.0420 H   0  0  0  0  0  0  0  0  0  0  0  0
   -0.4486   -4.7689   29.6453 H   0  0  0  0  0  0  0  0  0  0  0  0
   -1.5961   -8.4384   33.8323 H   0  0  0  0  0  0  0  0  0  0  0  0
   -0.7834   -6.2914   34.8109 H   0  0  0  0  0  0  0  0  0  0  0  0
   -0.2364   -4.6076   33.3465 H   0  0  0  0  0  0  0  0  0  0  0  0
    1.3382   -2.3917   29.1301 H   0  0  0  0  0  0  0  0  0  0  0  0
    1.0272   -1.0187   32.9103 H   0  0  0  0  0  0  0  0  0  0  0  0
   -0.4696    0.1521   34.8113 H   0  0  0  0  0  0  0  0  0  0  0  0
    7.6630   -4.4735   30.1887 H   0  0  0  0  0  0  0  0  0  0  0  0
    4.9766   -1.2793   30.3478 H   0  0  0  0  0  0  0  0  0  0  0  0
    3.5847   -0.0972   32.0357 H   0  0  0  0  0  0  0  0  0  0  0  0
    1.9697    1.5759   32.4143 H   0  0  0  0  0  0  0  0  0  0  0  0
    0.9606    3.6982   28.4223 H   0  0  0  0  0  0  0  0  0  0  0  0
    1.9920    3.6476   26.1676 H   0  0  0  0  0  0  0  0  0  0  0  0
    3.5797    1.8607   25.5682 H   0  0  0  0  0  0  0  0  0  0  0  0
    4.3032    0.2220   27.2329 H   0  0  0  0  0  0  0  0  0  0  0  0
  1  2  1  0
  2  3  1  0
  3  4  1  0
  4  5  1  0
  5  6  1  0
  6  7  1  0
  7  8  2  0
  8  9  1  0
  9 10  2  0
  9 11  1  0
 11 12  2  0
 12 13  1  0
  5 14  1  0
 14 15  1  0
 15 16  2  0
 15 17  2  0
 15 18  1  0
 18 19  2  0
 19 20  1  0
 20 21  2  0
 21 22  1  0
  2 23  1  0
 23 24  1  0
 24 25  1  0
 25 26  2  0
 26 27  1  0
 27 28  1  0
 28 29  2  0
 28 30  1  0
 30 31  1  0
 31 32  2  0
 32 33  1  0
 33 34  1  0
 34 35  2  0
 34 36  1  0
 36 37  2  0
 37 38  1  0
 38 39  2  0
 39 40  1  0
 40 41  2  0
 13  7  1  0
 22 18  1  0
 27 23  2  0
 41 31  1  0
 41 36  1  0
  1 42  1  0
  1 43  1  0
  2 44  1  0
  3 45  1  0
  3 46  1  0
  4 47  1  0
  5 48  1  0
  6 49  1  0
  6 50  1  0
 11 51  1  0
 12 52  1  0
 13 53  1  0
 14 54  1  0
 19 55  1  0
 20 56  1  0
 25 57  1  0
 30 58  1  0
 32 59  1  0
 33 60  1  0
 37 61  1  0
 38 62  1  0
 39 63  1  0
 40 64  1  0
M  END
>  <Energy>  (730) 
-36.402476781993819

>  <compound_id>  (730) 
2838

>  <target_id>  (730) 
1

>  <reference_id>  (730) 
186

>  <inspiration_ids>  (730) 
[186, 13]

>  <energy_score>  (730) 
-123.87564993668377

>  <distance_score>  (730) 
3.219596934560326

>  <path>  (730) 
/opt/xchem-fragalysis-2/maxwin/BulkDock/SCRATCH/505736/C2838-P186/C2838-P186.minimised.mol

>  <scratch_subdir>  (730) 
/opt/xchem-fragalysis-2/maxwin/BulkDock/SCRATCH/505736/C2838-P186

>  <fragmenstein_runtime>  (730) 
38.604214906692505

>  <fragmenstein_outcome>  (730) 
too moved

>  <fragmenstein_mode>  (730) 
expansion

>  <fragmenstein_error>  (730) 


$$$$
C2838-P13
     RDKit          3D

 64 68  0  0  0  0  0  0  0  0999 V2000
    2.2910   -1.5686   31.9630 N   0  0  0  0  0  0  0  0  0  0  0  0
    3.6616   -2.0558   31.8468 C   0  0  0  0  0  0  0  0  0  0  0  0
    3.9054   -3.5338   31.4359 C   0  0  0  0  0  0  0  0  0  0  0  0
    2.9412   -4.1624   30.5338 N   0  0  0  0  0  0  0  0  0  0  0  0
    1.6699   -4.4535   31.1666 C   0  0  0  0  0  0  0  0  0  0  0  0
    1.2324   -5.7897   30.6410 C   0  0  0  0  0  0  0  0  0  0  0  0
    0.4229   -6.5642   31.6414 C   0  0  0  0  0  0  0  0  0  0  0  0
   -0.5296   -7.2736   31.1311 N   0  0  0  0  0  0  0  0  0  0  0  0
   -1.3184   -8.0008   31.9780 C   0  0  0  0  0  0  0  0  0  0  0  0
   -2.0386   -8.8905   31.5571 O   0  0  0  0  0  0  0  0  0  0  0  0
   -1.2862   -7.6736   33.4239 C   0  0  0  0  0  0  0  0  0  0  0  0
   -0.2376   -6.9853   33.8701 C   0  0  0  0  0  0  0  0  0  0  0  0
    0.6979   -6.5222   32.9936 N   0  0  0  0  0  0  0  0  0  0  0  0
    0.7262   -3.4334   30.8178 N   0  0  0  0  0  0  0  0  0  0  0  0
   -0.5865   -3.2203   31.8557 S   0  0  0  0  0  0  0  0  0  0  0  0
   -0.0650   -2.9334   33.1744 O   0  0  0  0  0  0  0  0  0  0  0  0
   -1.5940   -4.2221   31.6175 O   0  0  0  0  0  0  0  0  0  0  0  0
   -1.2357   -1.7613   31.2150 C   0  0  0  0  0  0  0  0  0  0  0  0
   -1.9361   -1.4848   30.0699 C   0  0  0  0  0  0  0  0  0  0  0  0
   -1.9915   -0.0893   29.9084 C   0  0  0  0  0  0  0  0  0  0  0  0
   -1.2615    0.6383   30.7447 N   0  0  0  0  0  0  0  0  0  0  0  0
   -0.7388   -0.3244   31.9523 S   0  0  0  0  0  0  0  0  0  0  0  0
    4.4584   -1.1356   30.9827 C   0  0  0  0  0  0  0  0  0  0  0  0
    5.5487   -0.5053   31.5195 O   0  0  0  0  0  0  0  0  0  0  0  0
    5.9397    0.3580   30.5378 C   0  0  0  0  0  0  0  0  0  0  0  0
    5.1914    0.3526   29.4560 N   0  0  0  0  0  0  0  0  0  0  0  0
    4.2877   -0.6578   29.7041 C   0  0  0  0  0  0  0  0  0  0  0  0
    3.1478   -1.0146   28.8866 C   0  0  0  0  0  0  0  0  0  0  0  0
    2.9117   -2.1228   28.6124 O   0  0  0  0  0  0  0  0  0  0  0  0
    2.3597    0.2711   28.6011 N   0  0  0  0  0  0  0  0  0  0  0  0
    1.1390    0.4503   28.0345 C   0  0  0  0  0  0  0  0  0  0  0  0
    0.3746   -0.6008   27.7030 C   0  0  0  0  0  0  0  0  0  0  0  0
   -0.8740   -0.4469   27.1704 N   0  0  0  0  0  0  0  0  0  0  0  0
   -1.4776    0.7536   26.9288 C   0  0  0  0  0  0  0  0  0  0  0  0
   -2.5988    0.8249   26.4453 O   0  0  0  0  0  0  0  0  0  0  0  0
   -0.7042    1.9524   27.3203 C   0  0  0  0  0  0  0  0  0  0  0  0
   -1.2990    3.2054   27.1585 C   0  0  0  0  0  0  0  0  0  0  0  0
   -0.5975    4.3531   27.5101 C   0  0  0  0  0  0  0  0  0  0  0  0
    0.6939    4.2441   28.0161 C   0  0  0  0  0  0  0  0  0  0  0  0
    1.2847    2.9857   28.1836 C   0  0  0  0  0  0  0  0  0  0  0  0
    0.5905    1.8100   27.8497 C   0  0  0  0  0  0  0  0  0  0  0  0
    2.3224   -0.5765   32.2211 H   0  0  0  0  0  0  0  0  0  0  0  0
    1.8627   -2.0106   32.7879 H   0  0  0  0  0  0  0  0  0  0  0  0
    4.0916   -1.9620   32.8547 H   0  0  0  0  0  0  0  0  0  0  0  0
    4.8942   -3.6278   30.9684 H   0  0  0  0  0  0  0  0  0  0  0  0
    3.9719   -4.1424   32.3483 H   0  0  0  0  0  0  0  0  0  0  0  0
    2.7819   -3.5776   29.7032 H   0  0  0  0  0  0  0  0  0  0  0  0
    1.8199   -4.4582   32.2466 H   0  0  0  0  0  0  0  0  0  0  0  0
    0.6522   -5.6709   29.7207 H   0  0  0  0  0  0  0  0  0  0  0  0
    2.0900   -6.4064   30.3847 H   0  0  0  0  0  0  0  0  0  0  0  0
   -2.0597   -8.0679   34.0629 H   0  0  0  0  0  0  0  0  0  0  0  0
   -0.0985   -6.7455   34.9190 H   0  0  0  0  0  0  0  0  0  0  0  0
    1.4177   -5.9365   33.3954 H   0  0  0  0  0  0  0  0  0  0  0  0
    1.2281   -2.5338   30.7715 H   0  0  0  0  0  0  0  0  0  0  0  0
   -2.3181   -2.2323   29.3869 H   0  0  0  0  0  0  0  0  0  0  0  0
   -2.5132    0.4499   29.1370 H   0  0  0  0  0  0  0  0  0  0  0  0
    6.8049    0.9718   30.7496 H   0  0  0  0  0  0  0  0  0  0  0  0
    2.8969    1.0722   28.9109 H   0  0  0  0  0  0  0  0  0  0  0  0
    0.6878   -1.6320   27.8122 H   0  0  0  0  0  0  0  0  0  0  0  0
   -1.3634   -1.2551   26.7870 H   0  0  0  0  0  0  0  0  0  0  0  0
   -2.3154    3.2951   26.7765 H   0  0  0  0  0  0  0  0  0  0  0  0
   -1.0687    5.3276   27.4030 H   0  0  0  0  0  0  0  0  0  0  0  0
    1.2373    5.1436   28.2957 H   0  0  0  0  0  0  0  0  0  0  0  0
    2.2917    2.9640   28.5855 H   0  0  0  0  0  0  0  0  0  0  0  0
  1  2  1  0
  2  3  1  0
  3  4  1  0
  4  5  1  0
  5  6  1  0
  6  7  1  0
  7  8  2  0
  8  9  1  0
  9 10  2  0
  9 11  1  0
 11 12  2  0
 12 13  1  0
  5 14  1  0
 14 15  1  0
 15 16  2  0
 15 17  2  0
 15 18  1  0
 18 19  2  0
 19 20  1  0
 20 21  2  0
 21 22  1  0
  2 23  1  0
 23 24  1  0
 24 25  1  0
 25 26  2  0
 26 27  1  0
 27 28  1  0
 28 29  2  0
 28 30  1  0
 30 31  1  0
 31 32  2  0
 32 33  1  0
 33 34  1  0
 34 35  2  0
 34 36  1  0
 36 37  2  0
 37 38  1  0
 38 39  2  0
 39 40  1  0
 40 41  2  0
 13  7  1  0
 22 18  1  0
 27 23  2  0
 41 31  1  0
 41 36  1  0
  1 42  1  0
  1 43  1  0
  2 44  1  0
  3 45  1  0
  3 46  1  0
  4 47  1  0
  5 48  1  0
  6 49  1  0
  6 50  1  0
 11 51  1  0
 12 52  1  0
 13 53  1  0
 14 54  1  0
 19 55  1  0
 20 56  1  0
 25 57  1  0
 30 58  1  0
 32 59  1  0
 33 60  1  0
 37 61  1  0
 38 62  1  0
 39 63  1  0
 40 64  1  0
M  END
>  <Energy>  (731) 
-35.575630635997278

>  <compound_id>  (731) 
2838

>  <target_id>  (731) 
1

>  <reference_id>  (731) 
13

>  <inspiration_ids>  (731) 
[186, 13]

>  <energy_score>  (731) 
-107.93542176322399

>  <distance_score>  (731) 
1.5441291011017115

>  <path>  (731) 
/opt/xchem-fragalysis-2/maxwin/BulkDock/SCRATCH/505736/C2838-P13/C2838-P13.minimised.mol

>  <scratch_subdir>  (731) 
/opt/xchem-fragalysis-2/maxwin/BulkDock/SCRATCH/505736/C2838-P13

>  <fragmenstein_runtime>  (731) 
29.783628940582275

>  <fragmenstein_outcome>  (731) 
too moved

>  <fragmenstein_mode>  (731) 
expansion

>  <fragmenstein_error>  (731) 


$$$$
C2839-P186
     RDKit          3D

 39 42  0  0  0  0  0  0  0  0999 V2000
   -0.3197   -7.4422   36.9604 N   0  0  0  0  0  0  0  0  0  0  0  0
   -0.0664   -7.5861   35.6312 C   0  0  0  0  0  0  0  0  0  0  0  0
    1.0852   -7.7381   34.9986 C   0  0  0  0  0  0  0  0  0  0  0  0
    1.0417   -7.4724   33.6570 N   0  0  0  0  0  0  0  0  0  0  0  0
    2.0604   -6.6830   33.2671 N   0  0  0  0  0  0  0  0  0  0  0  0
    1.6826   -5.5281   32.8315 C   0  0  0  0  0  0  0  0  0  0  0  0
    2.3926   -4.3806   33.4483 C   0  0  0  0  0  0  0  0  0  0  0  0
    3.6646   -4.5783   33.9469 C   0  0  0  0  0  0  0  0  0  0  0  0
    4.2633   -3.7070   34.7915 N   0  0  0  0  0  0  0  0  0  0  0  0
    3.5335   -2.6351   35.1504 C   0  0  0  0  0  0  0  0  0  0  0  0
    2.2543   -2.4374   34.6834 C   0  0  0  0  0  0  0  0  0  0  0  0
    1.6518   -3.3061   33.8348 N   0  0  0  0  0  0  0  0  0  0  0  0
    0.4512   -5.3416   32.0347 C   0  0  0  0  0  0  0  0  0  0  0  0
    0.3898   -4.2599   31.0269 C   0  0  0  0  0  0  0  0  0  0  0  0
    0.1378   -3.0232   31.7347 N   0  0  0  0  0  0  0  0  0  0  0  0
   -1.3841   -2.3686   31.7172 S   0  0  0  0  0  0  0  0  0  0  0  0
   -1.4493   -1.4088   32.7922 O   0  0  0  0  0  0  0  0  0  0  0  0
   -2.3413   -3.4393   31.5477 O   0  0  0  0  0  0  0  0  0  0  0  0
   -1.3490   -1.5032   30.2089 C   0  0  0  0  0  0  0  0  0  0  0  0
   -1.3208   -1.9251   28.8992 C   0  0  0  0  0  0  0  0  0  0  0  0
   -1.0262   -0.8317   28.0602 C   0  0  0  0  0  0  0  0  0  0  0  0
   -0.9020    0.3616   28.6336 N   0  0  0  0  0  0  0  0  0  0  0  0
   -1.0802    0.1690   30.2662 S   0  0  0  0  0  0  0  0  0  0  0  0
   -0.5293   -6.1751   32.4186 C   0  0  0  0  0  0  0  0  0  0  0  0
   -0.2837   -7.1419   33.3589 N   0  0  0  0  0  0  0  0  0  0  0  0
   -1.0394   -7.3131   34.5260 C   0  0  0  0  0  0  0  0  0  0  0  0
   -2.2316   -7.1725   34.7298 O   0  0  0  0  0  0  0  0  0  0  0  0
   -1.0559   -6.7447   37.0994 H   0  0  0  0  0  0  0  0  0  0  0  0
    0.5054   -7.2332   37.5157 H   0  0  0  0  0  0  0  0  0  0  0  0
    2.0504   -7.8403   35.4765 H   0  0  0  0  0  0  0  0  0  0  0  0
    4.2468   -5.4650   33.7224 H   0  0  0  0  0  0  0  0  0  0  0  0
    4.0081   -1.9364   35.8307 H   0  0  0  0  0  0  0  0  0  0  0  0
    1.6664   -1.5757   34.9837 H   0  0  0  0  0  0  0  0  0  0  0  0
   -0.3590   -4.4700   30.2578 H   0  0  0  0  0  0  0  0  0  0  0  0
    1.3463   -4.1778   30.4988 H   0  0  0  0  0  0  0  0  0  0  0  0
    0.5830   -2.8993   32.6531 H   0  0  0  0  0  0  0  0  0  0  0  0
   -1.4317   -2.9505   28.5768 H   0  0  0  0  0  0  0  0  0  0  0  0
   -0.8832   -0.9050   26.9945 H   0  0  0  0  0  0  0  0  0  0  0  0
   -1.5496   -6.0847   32.0848 H   0  0  0  0  0  0  0  0  0  0  0  0
  1  2  1  0
  2  3  2  0
  3  4  1  0
  4  5  1  0
  5  6  2  0
  6  7  1  0
  7  8  2  0
  8  9  1  0
  9 10  2  0
 10 11  1  0
 11 12  2  0
  6 13  1  0
 13 14  1  0
 14 15  1  0
 15 16  1  0
 16 17  2  0
 16 18  2  0
 16 19  1  0
 19 20  2  0
 20 21  1  0
 21 22  2  0
 22 23  1  0
 13 24  2  0
 24 25  1  0
 25 26  1  0
 26 27  2  0
 26  2  1  0
 25  4  1  0
 12  7  1  0
 23 19  1  0
  1 28  1  0
  1 29  1  0
  3 30  1  0
  8 31  1  0
 10 32  1  0
 11 33  1  0
 14 34  1  0
 14 35  1  0
 15 36  1  0
 20 37  1  0
 21 38  1  0
 24 39  1  0
M  END
>  <Energy>  (732) 
104.71049635243963

>  <compound_id>  (732) 
2839

>  <target_id>  (732) 
1

>  <reference_id>  (732) 
186

>  <inspiration_ids>  (732) 
[186, 41]

>  <energy_score>  (732) 
-31.562893874717815

>  <distance_score>  (732) 
2.2729756139503947

>  <path>  (732) 
/opt/xchem-fragalysis-2/maxwin/BulkDock/SCRATCH/505736/C2839-P186/C2839-P186.minimised.mol

>  <scratch_subdir>  (732) 
/opt/xchem-fragalysis-2/maxwin/BulkDock/SCRATCH/505736/C2839-P186

>  <fragmenstein_runtime>  (732) 
3.907144784927368

>  <fragmenstein_outcome>  (732) 
too moved

>  <fragmenstein_mode>  (732) 
expansion

>  <fragmenstein_error>  (732) 


$$$$
C2839-P41
     RDKit          3D

 39 42  0  0  0  0  0  0  0  0999 V2000
   -2.2045   -8.2002   35.5025 N   0  0  0  0  0  0  0  0  0  0  0  0
   -1.6373   -7.5105   34.4660 C   0  0  0  0  0  0  0  0  0  0  0  0
   -1.1877   -7.8348   33.2450 C   0  0  0  0  0  0  0  0  0  0  0  0
   -0.5580   -6.7988   32.5894 N   0  0  0  0  0  0  0  0  0  0  0  0
    0.8302   -6.8816   32.5040 N   0  0  0  0  0  0  0  0  0  0  0  0
    1.3659   -5.6901   32.5412 C   0  0  0  0  0  0  0  0  0  0  0  0
    2.4854   -5.3906   33.4807 C   0  0  0  0  0  0  0  0  0  0  0  0
    2.3714   -5.9271   34.7562 C   0  0  0  0  0  0  0  0  0  0  0  0
    3.0480   -5.4241   35.8135 N   0  0  0  0  0  0  0  0  0  0  0  0
    3.8253   -4.3493   35.5596 C   0  0  0  0  0  0  0  0  0  0  0  0
    3.9377   -3.8029   34.2982 C   0  0  0  0  0  0  0  0  0  0  0  0
    3.2649   -4.3030   33.2351 N   0  0  0  0  0  0  0  0  0  0  0  0
    0.6224   -4.4543   32.1860 C   0  0  0  0  0  0  0  0  0  0  0  0
    1.2615   -3.3580   31.4432 C   0  0  0  0  0  0  0  0  0  0  0  0
    0.3568   -2.9375   30.3917 N   0  0  0  0  0  0  0  0  0  0  0  0
   -0.9968   -2.0534   30.8503 S   0  0  0  0  0  0  0  0  0  0  0  0
   -0.6986   -1.2879   32.0394 O   0  0  0  0  0  0  0  0  0  0  0  0
   -2.1108   -2.9749   30.8091 O   0  0  0  0  0  0  0  0  0  0  0  0
   -1.1862   -0.9561   29.5146 C   0  0  0  0  0  0  0  0  0  0  0  0
   -1.7443   -1.0537   28.2597 C   0  0  0  0  0  0  0  0  0  0  0  0
   -1.4865    0.1265   27.5163 C   0  0  0  0  0  0  0  0  0  0  0  0
   -0.7565    1.0644   28.1135 N   0  0  0  0  0  0  0  0  0  0  0  0
   -0.3521    0.5206   29.6259 S   0  0  0  0  0  0  0  0  0  0  0  0
   -0.4628   -4.4474   32.9720 C   0  0  0  0  0  0  0  0  0  0  0  0
   -0.9524   -5.6586   33.3432 N   0  0  0  0  0  0  0  0  0  0  0  0
   -1.3038   -6.0634   34.6114 C   0  0  0  0  0  0  0  0  0  0  0  0
   -1.3020   -5.4629   35.6725 O   0  0  0  0  0  0  0  0  0  0  0  0
   -1.9913   -9.2029   35.3965 H   0  0  0  0  0  0  0  0  0  0  0  0
   -1.7636   -7.8647   36.3656 H   0  0  0  0  0  0  0  0  0  0  0  0
   -1.1883   -8.7898   32.7556 H   0  0  0  0  0  0  0  0  0  0  0  0
    1.6793   -6.7269   34.9945 H   0  0  0  0  0  0  0  0  0  0  0  0
    4.3599   -3.9375   36.4089 H   0  0  0  0  0  0  0  0  0  0  0  0
    4.5644   -2.9384   34.1082 H   0  0  0  0  0  0  0  0  0  0  0  0
    2.1783   -3.7011   30.9505 H   0  0  0  0  0  0  0  0  0  0  0  0
    1.5410   -2.5199   32.0890 H   0  0  0  0  0  0  0  0  0  0  0  0
    0.0962   -3.6681   29.7265 H   0  0  0  0  0  0  0  0  0  0  0  0
   -2.2834   -1.9112   27.8862 H   0  0  0  0  0  0  0  0  0  0  0  0
   -1.8220    0.3194   26.5049 H   0  0  0  0  0  0  0  0  0  0  0  0
   -1.0328   -3.5829   33.2906 H   0  0  0  0  0  0  0  0  0  0  0  0
  1  2  1  0
  2  3  2  0
  3  4  1  0
  4  5  1  0
  5  6  2  0
  6  7  1  0
  7  8  2  0
  8  9  1  0
  9 10  2  0
 10 11  1  0
 11 12  2  0
  6 13  1  0
 13 14  1  0
 14 15  1  0
 15 16  1  0
 16 17  2  0
 16 18  2  0
 16 19  1  0
 19 20  2  0
 20 21  1  0
 21 22  2  0
 22 23  1  0
 13 24  2  0
 24 25  1  0
 25 26  1  0
 26 27  2  0
 26  2  1  0
 25  4  1  0
 12  7  1  0
 23 19  1  0
  1 28  1  0
  1 29  1  0
  3 30  1  0
  8 31  1  0
 10 32  1  0
 11 33  1  0
 14 34  1  0
 14 35  1  0
 15 36  1  0
 20 37  1  0
 21 38  1  0
 24 39  1  0
M  END
>  <Energy>  (733) 
122.33829018762123

>  <compound_id>  (733) 
2839

>  <target_id>  (733) 
1

>  <reference_id>  (733) 
41

>  <inspiration_ids>  (733) 
[186, 41]

>  <energy_score>  (733) 
-13.935100039535769

>  <distance_score>  (733) 
1.7908041614677346

>  <path>  (733) 
/opt/xchem-fragalysis-2/maxwin/BulkDock/SCRATCH/505736/C2839-P41/C2839-P41.minimised.mol

>  <scratch_subdir>  (733) 
/opt/xchem-fragalysis-2/maxwin/BulkDock/SCRATCH/505736/C2839-P41

>  <fragmenstein_runtime>  (733) 
3.439053773880005

>  <fragmenstein_outcome>  (733) 
too moved

>  <fragmenstein_mode>  (733) 
expansion

>  <fragmenstein_error>  (733) 


$$$$
C2840-P186
     RDKit          3D

 43 46  0  0  0  0  0  0  0  0999 V2000
    1.9070   -0.2020   32.6118 O   0  0  0  0  0  0  0  0  0  0  0  0
    2.0694   -0.7087   31.5943 C   0  0  0  0  0  0  0  0  0  0  0  0
    1.9524   -0.1230   30.1350 N   0  0  0  0  0  0  0  0  0  0  0  0
    1.5387    1.1153   29.7040 C   0  0  0  0  0  0  0  0  0  0  0  0
    1.3843    1.5528   28.3681 C   0  0  0  0  0  0  0  0  0  0  0  0
    0.8085    2.7518   28.2879 N   0  0  0  0  0  0  0  0  0  0  0  0
    0.5929    3.0953   29.5597 N   0  0  0  0  0  0  0  0  0  0  0  0
    1.0304    2.1536   30.4439 C   0  0  0  0  0  0  0  0  0  0  0  0
    2.3709   -2.2133   31.2448 N   0  0  0  0  0  0  0  0  0  0  0  0
    2.4264   -3.3116   32.0493 C   0  0  0  0  0  0  0  0  0  0  0  0
    2.3540   -3.3218   33.3948 C   0  0  0  0  0  0  0  0  0  0  0  0
    2.1056   -4.5174   34.0523 N   0  0  0  0  0  0  0  0  0  0  0  0
    2.0517   -4.8420   35.3631 N   0  0  0  0  0  0  0  0  0  0  0  0
    1.7253   -6.1377   35.3220 C   0  0  0  0  0  0  0  0  0  0  0  0
    1.5740   -6.6785   34.0720 N   0  0  0  0  0  0  0  0  0  0  0  0
    1.8168   -5.6338   33.3171 C   0  0  0  0  0  0  0  0  0  0  0  0
    1.7533   -5.4844   31.8987 C   0  0  0  0  0  0  0  0  0  0  0  0
    0.8398   -6.3503   31.1140 C   0  0  0  0  0  0  0  0  0  0  0  0
   -0.5125   -5.6909   31.3338 C   0  0  0  0  0  0  0  0  0  0  0  0
   -0.5518   -4.3624   30.6997 N   0  0  0  0  0  0  0  0  0  0  0  0
   -1.3101   -3.1198   31.5522 S   0  0  0  0  0  0  0  0  0  0  0  0
   -0.5263   -2.7774   32.7099 O   0  0  0  0  0  0  0  0  0  0  0  0
   -2.6952   -3.5069   31.6531 O   0  0  0  0  0  0  0  0  0  0  0  0
   -1.3119   -1.7589   30.4816 C   0  0  0  0  0  0  0  0  0  0  0  0
   -1.1203   -1.5977   29.1268 C   0  0  0  0  0  0  0  0  0  0  0  0
   -1.3580   -0.2474   28.7855 C   0  0  0  0  0  0  0  0  0  0  0  0
   -1.7347    0.5728   29.7598 N   0  0  0  0  0  0  0  0  0  0  0  0
   -1.7199   -0.2704   31.1827 S   0  0  0  0  0  0  0  0  0  0  0  0
    2.2490   -4.4508   31.2841 N   0  0  0  0  0  0  0  0  0  0  0  0
    2.2404   -0.8152   29.4685 H   0  0  0  0  0  0  0  0  0  0  0  0
    1.6466    1.0473   27.4495 H   0  0  0  0  0  0  0  0  0  0  0  0
    0.1367    3.9838   29.7515 H   0  0  0  0  0  0  0  0  0  0  0  0
    0.9014    2.2846   31.5083 H   0  0  0  0  0  0  0  0  0  0  0  0
    2.5382   -2.3047   30.2611 H   0  0  0  0  0  0  0  0  0  0  0  0
    2.4174   -2.4365   34.0129 H   0  0  0  0  0  0  0  0  0  0  0  0
    1.5934   -6.7077   36.2345 H   0  0  0  0  0  0  0  0  0  0  0  0
    0.8129   -7.3657   31.5080 H   0  0  0  0  0  0  0  0  0  0  0  0
    1.1184   -6.3642   30.0563 H   0  0  0  0  0  0  0  0  0  0  0  0
   -0.7446   -5.6115   32.4028 H   0  0  0  0  0  0  0  0  0  0  0  0
   -1.2633   -6.3554   30.9123 H   0  0  0  0  0  0  0  0  0  0  0  0
   -0.7857   -4.3764   29.7052 H   0  0  0  0  0  0  0  0  0  0  0  0
   -0.8609   -2.3814   28.4292 H   0  0  0  0  0  0  0  0  0  0  0  0
   -1.2576    0.1803   27.8063 H   0  0  0  0  0  0  0  0  0  0  0  0
  1  2  2  0
  2  3  1  0
  3  4  1  0
  4  5  1  0
  5  6  2  0
  6  7  1  0
  7  8  1  0
  2  9  1  0
  9 10  1  0
 10 11  2  0
 11 12  1  0
 12 13  1  0
 13 14  2  0
 14 15  1  0
 15 16  2  0
 16 17  1  0
 17 18  1  0
 18 19  1  0
 19 20  1  0
 20 21  1  0
 21 22  2  0
 21 23  2  0
 21 24  1  0
 24 25  2  0
 25 26  1  0
 26 27  2  0
 27 28  1  0
 17 29  2  0
  8  4  2  0
 29 10  1  0
 16 12  1  0
 28 24  1  0
  3 30  1  0
  5 31  1  0
  7 32  1  0
  8 33  1  0
  9 34  1  0
 11 35  1  0
 14 36  1  0
 18 37  1  0
 18 38  1  0
 19 39  1  0
 19 40  1  0
 20 41  1  0
 25 42  1  0
 26 43  1  0
M  END
>  <Energy>  (734) 
-87.221424924371263

>  <compound_id>  (734) 
2840

>  <target_id>  (734) 
1

>  <reference_id>  (734) 
186

>  <inspiration_ids>  (734) 
[186, 44]

>  <energy_score>  (734) 
-38.01643921617914

>  <distance_score>  (734) 
3.4524787745906793

>  <path>  (734) 
/opt/xchem-fragalysis-2/maxwin/BulkDock/SCRATCH/505736/C2840-P186/C2840-P186.minimised.mol

>  <scratch_subdir>  (734) 
/opt/xchem-fragalysis-2/maxwin/BulkDock/SCRATCH/505736/C2840-P186

>  <fragmenstein_runtime>  (734) 
10.712157726287842

>  <fragmenstein_outcome>  (734) 
too moved

>  <fragmenstein_mode>  (734) 
expansion

>  <fragmenstein_error>  (734) 


$$$$
C2840-P44
     RDKit          3D

 43 46  0  0  0  0  0  0  0  0999 V2000
   -1.3735   -0.2294   32.3178 O   0  0  0  0  0  0  0  0  0  0  0  0
   -1.6905   -0.9795   31.5049 C   0  0  0  0  0  0  0  0  0  0  0  0
   -1.9198   -0.7679   29.9506 N   0  0  0  0  0  0  0  0  0  0  0  0
   -1.7104    0.3411   29.1629 C   0  0  0  0  0  0  0  0  0  0  0  0
   -0.8394    1.4242   29.3935 C   0  0  0  0  0  0  0  0  0  0  0  0
   -0.7760    2.2806   28.3710 N   0  0  0  0  0  0  0  0  0  0  0  0
   -1.6263    1.7598   27.4844 N   0  0  0  0  0  0  0  0  0  0  0  0
   -2.0673    0.5184   27.8443 C   0  0  0  0  0  0  0  0  0  0  0  0
   -1.9207   -2.5375   31.5906 N   0  0  0  0  0  0  0  0  0  0  0  0
   -1.7141   -3.4084   32.6268 C   0  0  0  0  0  0  0  0  0  0  0  0
   -1.3995   -3.0776   33.8878 C   0  0  0  0  0  0  0  0  0  0  0  0
   -0.6084   -3.9525   34.6218 N   0  0  0  0  0  0  0  0  0  0  0  0
   -0.1415   -3.8813   35.8931 N   0  0  0  0  0  0  0  0  0  0  0  0
    0.6936   -4.9227   35.9444 C   0  0  0  0  0  0  0  0  0  0  0  0
    0.8367   -5.6385   34.7882 N   0  0  0  0  0  0  0  0  0  0  0  0
   -0.0027   -5.0166   33.9942 C   0  0  0  0  0  0  0  0  0  0  0  0
   -0.3181   -5.2614   32.6209 C   0  0  0  0  0  0  0  0  0  0  0  0
    0.5814   -6.1775   31.8143 C   0  0  0  0  0  0  0  0  0  0  0  0
    0.9471   -5.6377   30.4343 C   0  0  0  0  0  0  0  0  0  0  0  0
    1.6878   -4.3489   30.4133 N   0  0  0  0  0  0  0  0  0  0  0  0
    0.7136   -2.9866   30.4604 S   0  0  0  0  0  0  0  0  0  0  0  0
    0.8223   -2.5196   31.8254 O   0  0  0  0  0  0  0  0  0  0  0  0
   -0.5299   -3.3550   29.8066 O   0  0  0  0  0  0  0  0  0  0  0  0
    1.2505   -1.6912   29.4555 C   0  0  0  0  0  0  0  0  0  0  0  0
    0.9157   -1.3234   28.1722 C   0  0  0  0  0  0  0  0  0  0  0  0
    1.4942   -0.0721   27.8600 C   0  0  0  0  0  0  0  0  0  0  0  0
    2.2412    0.4928   28.8035 N   0  0  0  0  0  0  0  0  0  0  0  0
    2.1929   -0.4685   30.1517 S   0  0  0  0  0  0  0  0  0  0  0  0
   -1.3292   -4.6457   32.0623 N   0  0  0  0  0  0  0  0  0  0  0  0
   -2.2744   -1.6181   29.5399 H   0  0  0  0  0  0  0  0  0  0  0  0
   -0.2320    1.6224   30.2681 H   0  0  0  0  0  0  0  0  0  0  0  0
   -1.8195    2.2800   26.6347 H   0  0  0  0  0  0  0  0  0  0  0  0
   -2.6142   -0.0952   27.1471 H   0  0  0  0  0  0  0  0  0  0  0  0
   -2.1150   -2.9040   30.6700 H   0  0  0  0  0  0  0  0  0  0  0  0
   -1.5902   -2.1135   34.3353 H   0  0  0  0  0  0  0  0  0  0  0  0
    1.2278   -5.1613   36.8559 H   0  0  0  0  0  0  0  0  0  0  0  0
    0.0590   -7.1352   31.7030 H   0  0  0  0  0  0  0  0  0  0  0  0
    1.5028   -6.3736   32.3743 H   0  0  0  0  0  0  0  0  0  0  0  0
    0.0589   -5.5984   29.8017 H   0  0  0  0  0  0  0  0  0  0  0  0
    1.6082   -6.3685   29.9540 H   0  0  0  0  0  0  0  0  0  0  0  0
    2.4298   -4.2761   31.1126 H   0  0  0  0  0  0  0  0  0  0  0  0
    0.2264   -1.8732   27.5516 H   0  0  0  0  0  0  0  0  0  0  0  0
    1.3657    0.4871   26.9456 H   0  0  0  0  0  0  0  0  0  0  0  0
  1  2  2  0
  2  3  1  0
  3  4  1  0
  4  5  1  0
  5  6  2  0
  6  7  1  0
  7  8  1  0
  2  9  1  0
  9 10  1  0
 10 11  2  0
 11 12  1  0
 12 13  1  0
 13 14  2  0
 14 15  1  0
 15 16  2  0
 16 17  1  0
 17 18  1  0
 18 19  1  0
 19 20  1  0
 20 21  1  0
 21 22  2  0
 21 23  2  0
 21 24  1  0
 24 25  2  0
 25 26  1  0
 26 27  2  0
 27 28  1  0
 17 29  2  0
  8  4  2  0
 29 10  1  0
 16 12  1  0
 28 24  1  0
  3 30  1  0
  5 31  1  0
  7 32  1  0
  8 33  1  0
  9 34  1  0
 11 35  1  0
 14 36  1  0
 18 37  1  0
 18 38  1  0
 19 39  1  0
 19 40  1  0
 20 41  1  0
 25 42  1  0
 26 43  1  0
M  END
>  <Energy>  (735) 
-64.631030262641914

>  <compound_id>  (735) 
2840

>  <target_id>  (735) 
1

>  <reference_id>  (735) 
44

>  <inspiration_ids>  (735) 
[186, 44]

>  <energy_score>  (735) 
-15.426044554453341

>  <distance_score>  (735) 
2.941458281961529

>  <path>  (735) 
/opt/xchem-fragalysis-2/maxwin/BulkDock/SCRATCH/505736/C2840-P44/C2840-P44.minimised.mol

>  <scratch_subdir>  (735) 
/opt/xchem-fragalysis-2/maxwin/BulkDock/SCRATCH/505736/C2840-P44

>  <fragmenstein_runtime>  (735) 
7.797603368759155

>  <fragmenstein_outcome>  (735) 
too moved

>  <fragmenstein_mode>  (735) 
expansion

>  <fragmenstein_error>  (735) 


$$$$
C2840-P186
     RDKit          2D

  0  0  0  0  0  0  0  0  0  0999 V2000
M  END
>  <compound_id>  (736) 
2840

>  <target_id>  (736) 
1

>  <reference_id>  (736) 
186

>  <inspiration_ids>  (736) 
[186, 53]

>  <energy_score>  (736) 
nan

>  <distance_score>  (736) 
nan

>  <path>  (736) 
/opt/xchem-fragalysis-2/maxwin/BulkDock/SCRATCH/505736/C2840-P186/C2840-P186.minimised.mol

>  <scratch_subdir>  (736) 
/opt/xchem-fragalysis-2/maxwin/BulkDock/SCRATCH/505736/C2840-P186

>  <fragmenstein_runtime>  (736) 
0.597301721572876

>  <fragmenstein_outcome>  (736) 
too distant

>  <fragmenstein_mode>  (736) 
expansion

>  <fragmenstein_error>  (736) 
DistanceError: hit1

$$$$
C2841-P186
     RDKit          3D

 46 49  0  0  0  0  0  0  0  0999 V2000
    1.3195   -4.1733   28.5143 C   0  0  0  0  0  0  0  0  0  0  0  0
    2.2491   -3.7332   29.3626 C   0  0  0  0  0  0  0  0  0  0  0  0
    2.1861   -3.8124   30.8797 C   0  0  0  0  0  0  0  0  0  0  0  0
    2.0415   -5.2477   31.3849 C   0  0  0  0  0  0  0  0  0  0  0  0
    0.7451   -5.9072   31.7528 C   0  0  0  0  0  0  0  0  0  0  0  0
   -0.0426   -6.4300   30.8418 N   0  0  0  0  0  0  0  0  0  0  0  0
   -0.9663   -7.1805   31.5601 C   0  0  0  0  0  0  0  0  0  0  0  0
   -1.7910   -7.9328   31.0576 O   0  0  0  0  0  0  0  0  0  0  0  0
   -0.7458   -6.9777   32.9066 N   0  0  0  0  0  0  0  0  0  0  0  0
   -1.2998   -7.6075   33.9839 C   0  0  0  0  0  0  0  0  0  0  0  0
   -0.7760   -7.4360   35.2069 C   0  0  0  0  0  0  0  0  0  0  0  0
    0.4131   -6.6292   35.3714 C   0  0  0  0  0  0  0  0  0  0  0  0
    0.9575   -6.0550   34.2864 C   0  0  0  0  0  0  0  0  0  0  0  0
    0.3760   -6.1753   33.0483 N   0  0  0  0  0  0  0  0  0  0  0  0
    1.4207   -2.6477   31.5891 C   0  0  0  0  0  0  0  0  0  0  0  0
    1.6085   -2.6932   33.1423 C   0  0  0  0  0  0  0  0  0  0  0  0
    1.2413   -1.4643   33.7807 O   0  0  0  0  0  0  0  0  0  0  0  0
    2.0009   -1.3526   31.1416 N   0  0  0  0  0  0  0  0  0  0  0  0
    0.8855   -0.4739   31.0127 N   0  0  0  0  0  0  0  0  0  0  0  0
   -0.2463   -1.3115   30.6523 C   0  0  0  0  0  0  0  0  0  0  0  0
   -0.4710   -1.4510   29.1379 C   0  0  0  0  0  0  0  0  0  0  0  0
   -1.1107   -0.1737   28.6400 C   0  0  0  0  0  0  0  0  0  0  0  0
   -1.9955    0.2560   29.7077 N   0  0  0  0  0  0  0  0  0  0  0  0
   -1.7529   -0.4610   31.1830 S   0  0  0  0  0  0  0  0  0  0  0  0
   -0.0122   -2.5887   31.2924 N   0  0  0  0  0  0  0  0  0  0  0  0
    0.3944   -4.6273   28.8532 H   0  0  0  0  0  0  0  0  0  0  0  0
    1.4554   -4.0693   27.4407 H   0  0  0  0  0  0  0  0  0  0  0  0
    3.1469   -3.2834   28.9366 H   0  0  0  0  0  0  0  0  0  0  0  0
    3.2426   -3.6061   31.1350 H   0  0  0  0  0  0  0  0  0  0  0  0
    2.7027   -5.3532   32.2538 H   0  0  0  0  0  0  0  0  0  0  0  0
    2.4710   -5.8972   30.6165 H   0  0  0  0  0  0  0  0  0  0  0  0
   -2.1304   -8.2734   33.7894 H   0  0  0  0  0  0  0  0  0  0  0  0
   -1.1778   -7.9560   36.0634 H   0  0  0  0  0  0  0  0  0  0  0  0
    0.8539   -6.5322   36.3578 H   0  0  0  0  0  0  0  0  0  0  0  0
    1.8655   -5.4686   34.3495 H   0  0  0  0  0  0  0  0  0  0  0  0
    2.6531   -2.8926   33.4042 H   0  0  0  0  0  0  0  0  0  0  0  0
    0.9838   -3.4672   33.5863 H   0  0  0  0  0  0  0  0  0  0  0  0
    1.1677   -0.8258   33.0347 H   0  0  0  0  0  0  0  0  0  0  0  0
    2.4715   -1.4788   30.2429 H   0  0  0  0  0  0  0  0  0  0  0  0
    1.0080    0.2829   30.3399 H   0  0  0  0  0  0  0  0  0  0  0  0
   -1.1396   -2.2966   28.9192 H   0  0  0  0  0  0  0  0  0  0  0  0
    0.4595   -1.6244   28.5897 H   0  0  0  0  0  0  0  0  0  0  0  0
   -1.6759   -0.3757   27.7320 H   0  0  0  0  0  0  0  0  0  0  0  0
   -0.3524    0.5900   28.4372 H   0  0  0  0  0  0  0  0  0  0  0  0
   -2.0610    1.2694   29.7376 H   0  0  0  0  0  0  0  0  0  0  0  0
   -0.2769   -3.3263   30.6498 H   0  0  0  0  0  0  0  0  0  0  0  0
  1  2  2  0
  2  3  1  0
  3  4  1  0
  4  5  1  0
  5  6  2  0
  6  7  1  0
  7  8  2  0
  7  9  1  0
  9 10  1  0
 10 11  2  0
 11 12  1  0
 12 13  2  0
 13 14  1  0
  3 15  1  0
 15 16  1  0
 16 17  1  0
 15 18  1  0
 18 19  1  0
 19 20  1  0
 20 21  1  0
 21 22  1  0
 22 23  1  0
 23 24  1  0
 20 25  1  0
 14  5  1  0
 25 15  1  0
 14  9  1  0
 24 20  1  0
  1 26  1  0
  1 27  1  0
  2 28  1  0
  3 29  1  0
  4 30  1  0
  4 31  1  0
 10 32  1  0
 11 33  1  0
 12 34  1  0
 13 35  1  0
 16 36  1  0
 16 37  1  0
 17 38  1  0
 18 39  1  0
 19 40  1  0
 21 41  1  0
 21 42  1  0
 22 43  1  0
 22 44  1  0
 23 45  1  0
 25 46  1  0
M  END
>  <Energy>  (737) 
103.42547121933113

>  <compound_id>  (737) 
2841

>  <target_id>  (737) 
1

>  <reference_id>  (737) 
186

>  <inspiration_ids>  (737) 
[186, 56]

>  <energy_score>  (737) 
-46.80230910877714

>  <distance_score>  (737) 
2.141627629561392

>  <path>  (737) 
/opt/xchem-fragalysis-2/maxwin/BulkDock/SCRATCH/505736/C2841-P186/C2841-P186.minimised.mol

>  <scratch_subdir>  (737) 
/opt/xchem-fragalysis-2/maxwin/BulkDock/SCRATCH/505736/C2841-P186

>  <fragmenstein_runtime>  (737) 
3.7589011192321777

>  <fragmenstein_outcome>  (737) 
too moved

>  <fragmenstein_mode>  (737) 
expansion

>  <fragmenstein_error>  (737) 


$$$$
C2841-P56
     RDKit          3D

 46 49  0  0  0  0  0  0  0  0999 V2000
    0.0139   -4.9142   28.5835 C   0  0  0  0  0  0  0  0  0  0  0  0
    0.9610   -4.1336   29.1109 C   0  0  0  0  0  0  0  0  0  0  0  0
    1.4147   -4.0178   30.5613 C   0  0  0  0  0  0  0  0  0  0  0  0
    1.4830   -5.3043   31.4034 C   0  0  0  0  0  0  0  0  0  0  0  0
    0.2809   -6.0586   31.9095 C   0  0  0  0  0  0  0  0  0  0  0  0
   -0.5322   -6.6965   31.0992 N   0  0  0  0  0  0  0  0  0  0  0  0
   -1.3432   -7.4564   31.9165 C   0  0  0  0  0  0  0  0  0  0  0  0
   -2.1769   -8.2573   31.5166 O   0  0  0  0  0  0  0  0  0  0  0  0
   -1.0376   -7.1837   33.2272 N   0  0  0  0  0  0  0  0  0  0  0  0
   -1.4839   -7.7814   34.3741 C   0  0  0  0  0  0  0  0  0  0  0  0
   -0.9707   -7.4026   35.5547 C   0  0  0  0  0  0  0  0  0  0  0  0
    0.0443   -6.3683   35.5962 C   0  0  0  0  0  0  0  0  0  0  0  0
    0.5299   -5.8788   34.4437 C   0  0  0  0  0  0  0  0  0  0  0  0
    0.0095   -6.2711   33.2408 N   0  0  0  0  0  0  0  0  0  0  0  0
    0.9066   -2.6916   31.2489 C   0  0  0  0  0  0  0  0  0  0  0  0
    1.1542   -2.6566   32.7917 C   0  0  0  0  0  0  0  0  0  0  0  0
    0.9422   -1.3541   33.3543 O   0  0  0  0  0  0  0  0  0  0  0  0
    1.6753   -1.5464   30.6824 N   0  0  0  0  0  0  0  0  0  0  0  0
    0.7254   -0.4906   30.5400 N   0  0  0  0  0  0  0  0  0  0  0  0
   -0.5485   -1.1334   30.2658 C   0  0  0  0  0  0  0  0  0  0  0  0
   -0.8515   -1.3093   28.7633 C   0  0  0  0  0  0  0  0  0  0  0  0
   -1.2654    0.0462   28.2112 C   0  0  0  0  0  0  0  0  0  0  0  0
   -2.0983    0.6281   29.2530 N   0  0  0  0  0  0  0  0  0  0  0  0
   -1.8716    0.0032   30.7794 S   0  0  0  0  0  0  0  0  0  0  0  0
   -0.5132   -2.3860   30.9973 N   0  0  0  0  0  0  0  0  0  0  0  0
   -0.5708   -5.6218   29.1438 H   0  0  0  0  0  0  0  0  0  0  0  0
   -0.1835   -4.9028   27.5206 H   0  0  0  0  0  0  0  0  0  0  0  0
    1.4929   -3.4902   28.4068 H   0  0  0  0  0  0  0  0  0  0  0  0
    2.4984   -3.8415   30.4271 H   0  0  0  0  0  0  0  0  0  0  0  0
    2.1403   -5.1190   32.2608 H   0  0  0  0  0  0  0  0  0  0  0  0
    2.0379   -6.0341   30.8097 H   0  0  0  0  0  0  0  0  0  0  0  0
   -2.2273   -8.5645   34.2691 H   0  0  0  0  0  0  0  0  0  0  0  0
   -1.2670   -7.8807   36.4775 H   0  0  0  0  0  0  0  0  0  0  0  0
    0.4001   -6.0087   36.5534 H   0  0  0  0  0  0  0  0  0  0  0  0
    1.3227   -5.1420   34.4199 H   0  0  0  0  0  0  0  0  0  0  0  0
    2.1844   -2.9404   33.0300 H   0  0  0  0  0  0  0  0  0  0  0  0
    0.4686   -3.3319   33.3059 H   0  0  0  0  0  0  0  0  0  0  0  0
    0.9586   -0.7592   32.5704 H   0  0  0  0  0  0  0  0  0  0  0  0
    2.0727   -1.8115   29.7779 H   0  0  0  0  0  0  0  0  0  0  0  0
    0.9536    0.1966   29.8228 H   0  0  0  0  0  0  0  0  0  0  0  0
   -1.6719   -2.0259   28.6160 H   0  0  0  0  0  0  0  0  0  0  0  0
    0.0080   -1.6872   28.2020 H   0  0  0  0  0  0  0  0  0  0  0  0
   -1.8170   -0.0478   27.2716 H   0  0  0  0  0  0  0  0  0  0  0  0
   -0.3859    0.6747   28.0312 H   0  0  0  0  0  0  0  0  0  0  0  0
   -2.0832    1.6463   29.2122 H   0  0  0  0  0  0  0  0  0  0  0  0
   -0.9272   -3.1080   30.4190 H   0  0  0  0  0  0  0  0  0  0  0  0
  1  2  2  0
  2  3  1  0
  3  4  1  0
  4  5  1  0
  5  6  2  0
  6  7  1  0
  7  8  2  0
  7  9  1  0
  9 10  1  0
 10 11  2  0
 11 12  1  0
 12 13  2  0
 13 14  1  0
  3 15  1  0
 15 16  1  0
 16 17  1  0
 15 18  1  0
 18 19  1  0
 19 20  1  0
 20 21  1  0
 21 22  1  0
 22 23  1  0
 23 24  1  0
 20 25  1  0
 14  5  1  0
 25 15  1  0
 14  9  1  0
 24 20  1  0
  1 26  1  0
  1 27  1  0
  2 28  1  0
  3 29  1  0
  4 30  1  0
  4 31  1  0
 10 32  1  0
 11 33  1  0
 12 34  1  0
 13 35  1  0
 16 36  1  0
 16 37  1  0
 17 38  1  0
 18 39  1  0
 19 40  1  0
 21 41  1  0
 21 42  1  0
 22 43  1  0
 22 44  1  0
 23 45  1  0
 25 46  1  0
M  END
>  <Energy>  (738) 
105.89997795954358

>  <compound_id>  (738) 
2841

>  <target_id>  (738) 
1

>  <reference_id>  (738) 
56

>  <inspiration_ids>  (738) 
[186, 56]

>  <energy_score>  (738) 
-44.32780236856581

>  <distance_score>  (738) 
2.082437598517257

>  <path>  (738) 
/opt/xchem-fragalysis-2/maxwin/BulkDock/SCRATCH/505736/C2841-P56/C2841-P56.minimised.mol

>  <scratch_subdir>  (738) 
/opt/xchem-fragalysis-2/maxwin/BulkDock/SCRATCH/505736/C2841-P56

>  <fragmenstein_runtime>  (738) 
4.345784425735474

>  <fragmenstein_outcome>  (738) 
too moved

>  <fragmenstein_mode>  (738) 
expansion

>  <fragmenstein_error>  (738) 


$$$$
C2842-P186
     RDKit          3D

 67 70  0  0  0  0  0  0  0  0999 V2000
    2.1459   -3.9455   27.9650 C   0  0  0  0  0  0  0  0  0  0  0  0
    1.5441   -2.5827   28.1062 C   0  0  0  0  0  0  0  0  0  0  0  0
    1.5638   -1.7856   29.2035 C   0  0  0  0  0  0  0  0  0  0  0  0
    2.1087   -2.3185   30.5273 C   0  0  0  0  0  0  0  0  0  0  0  0
    1.2507   -3.3440   31.2675 C   0  0  0  0  0  0  0  0  0  0  0  0
    0.8601   -3.0468   32.5242 N   0  0  0  0  0  0  0  0  0  0  0  0
    0.2697   -4.0084   33.3084 N   0  0  0  0  0  0  0  0  0  0  0  0
    0.0913   -5.2494   32.8217 C   0  0  0  0  0  0  0  0  0  0  0  0
   -0.5124   -6.3027   33.7096 C   0  0  0  0  0  0  0  0  0  0  0  0
   -0.4887   -6.0165   35.2151 C   0  0  0  0  0  0  0  0  0  0  0  0
    0.9084   -6.1170   35.8124 C   0  0  0  0  0  0  0  0  0  0  0  0
    0.4535   -5.4876   31.5084 C   0  0  0  0  0  0  0  0  0  0  0  0
    0.2460   -6.6865   30.8806 O   0  0  0  0  0  0  0  0  0  0  0  0
    1.0586   -4.5701   30.7294 N   0  0  0  0  0  0  0  0  0  0  0  0
    1.0964   -0.3846   28.9321 N   0  0  0  0  0  0  0  0  0  0  0  0
    1.1371    0.0151   27.5496 N   0  0  0  0  0  0  0  0  0  0  0  0
    1.0367    1.4100   27.1663 C   0  0  0  0  0  0  0  0  0  0  0  0
    2.2009    1.7454   26.2993 N   0  0  0  0  0  0  0  0  0  0  0  0
    3.4164    2.1073   27.0293 N   0  0  0  0  0  0  0  0  0  0  0  0
    4.3467    0.9863   27.1042 C   0  0  0  0  0  0  0  0  0  0  0  0
    5.9659    1.5985   27.6410 S   0  0  0  0  0  0  0  0  0  0  0  0
   -0.5681    1.9749   26.7347 C   0  0  0  0  0  0  0  0  0  0  0  0
   -1.6003    2.6089   24.5377 C   0  0  0  0  0  0  0  0  0  0  0  0
   -2.7955    4.1392   25.3024 C   0  0  0  0  0  0  0  0  0  0  0  0
   -2.5499    4.2831   27.3200 C   0  0  0  0  0  0  0  0  0  0  0  0
   -1.3942    2.6064   28.3264 S   0  0  0  0  0  0  0  0  0  0  0  0
   -2.4052    1.2973   28.6218 N   0  0  0  0  0  0  0  0  0  0  0  0
   -1.9154    0.2557   29.5244 C   0  0  0  0  0  0  0  0  0  0  0  0
   -1.1638    0.9172   30.6325 C   0  0  0  0  0  0  0  0  0  0  0  0
   -0.2141    2.0107   29.9970 C   0  0  0  0  0  0  0  0  0  0  0  0
    1.3983    0.9249   30.0500 S   0  0  0  0  0  0  0  0  0  0  0  0
    2.5559    1.6921   29.6430 O   0  0  0  0  0  0  0  0  0  0  0  0
    1.4550    0.3692   31.3932 O   0  0  0  0  0  0  0  0  0  0  0  0
    1.3980   -4.7082   28.1675 H   0  0  0  0  0  0  0  0  0  0  0  0
    3.0064   -4.1079   28.6179 H   0  0  0  0  0  0  0  0  0  0  0  0
    2.5040   -4.0807   26.9387 H   0  0  0  0  0  0  0  0  0  0  0  0
    1.0730   -2.2602   27.1810 H   0  0  0  0  0  0  0  0  0  0  0  0
    2.4107   -1.5387   31.2198 H   0  0  0  0  0  0  0  0  0  0  0  0
    3.0689   -2.8141   30.3286 H   0  0  0  0  0  0  0  0  0  0  0  0
    0.0030   -7.2567   33.5411 H   0  0  0  0  0  0  0  0  0  0  0  0
   -1.5515   -6.4424   33.3956 H   0  0  0  0  0  0  0  0  0  0  0  0
   -0.9162   -5.0319   35.4357 H   0  0  0  0  0  0  0  0  0  0  0  0
   -1.1251   -6.7562   35.7156 H   0  0  0  0  0  0  0  0  0  0  0  0
    1.3373   -7.1094   35.6388 H   0  0  0  0  0  0  0  0  0  0  0  0
    0.8669   -5.9526   36.8939 H   0  0  0  0  0  0  0  0  0  0  0  0
    1.5850   -5.3713   35.3851 H   0  0  0  0  0  0  0  0  0  0  0  0
   -0.2977   -7.2611   31.4368 H   0  0  0  0  0  0  0  0  0  0  0  0
    2.0719   -0.2259   27.2132 H   0  0  0  0  0  0  0  0  0  0  0  0
    1.2368    2.0482   28.0119 H   0  0  0  0  0  0  0  0  0  0  0  0
    1.8848    2.5258   25.7049 H   0  0  0  0  0  0  0  0  0  0  0  0
    3.2467    2.4131   27.9990 H   0  0  0  0  0  0  0  0  0  0  0  0
    4.4536    0.4795   26.1411 H   0  0  0  0  0  0  0  0  0  0  0  0
    4.0232    0.2401   27.8351 H   0  0  0  0  0  0  0  0  0  0  0  0
    6.5974    0.4213   27.5404 H   0  0  0  0  0  0  0  0  0  0  0  0
    0.1134    2.9949   27.1248 H   0  0  0  0  0  0  0  0  0  0  0  0
   -0.9873    3.1923   23.7394 H   0  0  0  0  0  0  0  0  0  0  0  0
   -2.4323    2.1136   23.9618 H   0  0  0  0  0  0  0  0  0  0  0  0
   -3.8431    3.8687   25.0973 H   0  0  0  0  0  0  0  0  0  0  0  0
   -2.5008    5.0897   24.8330 H   0  0  0  0  0  0  0  0  0  0  0  0
   -1.9927    5.1927   27.5786 H   0  0  0  0  0  0  0  0  0  0  0  0
   -3.5305    4.2299   27.7431 H   0  0  0  0  0  0  0  0  0  0  0  0
   -2.6055    0.7987   27.7577 H   0  0  0  0  0  0  0  0  0  0  0  0
   -1.3192   -0.4667   28.9675 H   0  0  0  0  0  0  0  0  0  0  0  0
   -2.7167   -0.3041   29.9918 H   0  0  0  0  0  0  0  0  0  0  0  0
   -0.6778    0.1205   31.1996 H   0  0  0  0  0  0  0  0  0  0  0  0
   -1.8292    1.2944   31.3962 H   0  0  0  0  0  0  0  0  0  0  0  0
   -0.0258    2.8921   30.6135 H   0  0  0  0  0  0  0  0  0  0  0  0
  1  2  1  0
  2  3  2  3
  3  4  1  0
  4  5  1  0
  5  6  2  0
  6  7  1  0
  7  8  2  0
  8  9  1  0
  9 10  1  0
 10 11  1  0
  8 12  1  0
 12 13  1  0
 12 14  2  0
  3 15  1  0
 15 16  1  0
 16 17  1  0
 17 18  1  0
 18 19  1  0
 19 20  1  0
 20 21  1  0
 17 22  1  0
 22 23  1  0
 23 24  1  0
 24 25  1  0
 25 26  1  0
 26 27  1  0
 27 28  1  0
 28 29  1  0
 29 30  1  0
 30 31  1  0
 31 32  2  0
 31 33  2  0
 14  5  1  0
 31 15  1  0
 26 22  1  0
 30 26  1  0
  1 34  1  0
  1 35  1  0
  1 36  1  0
  2 37  1  0
  4 38  1  0
  4 39  1  0
  9 40  1  0
  9 41  1  0
 10 42  1  0
 10 43  1  0
 11 44  1  0
 11 45  1  0
 11 46  1  0
 13 47  1  0
 16 48  1  0
 17 49  1  0
 18 50  1  0
 19 51  1  0
 20 52  1  0
 20 53  1  0
 21 54  1  0
 22 55  1  0
 23 56  1  0
 23 57  1  0
 24 58  1  0
 24 59  1  0
 25 60  1  0
 25 61  1  0
 27 62  1  0
 28 63  1  0
 28 64  1  0
 29 65  1  0
 29 66  1  0
 30 67  1  0
M  END
>  <Energy>  (739) 
990.69948459586612

>  <compound_id>  (739) 
2842

>  <target_id>  (739) 
1

>  <reference_id>  (739) 
186

>  <inspiration_ids>  (739) 
[186, 57]

>  <energy_score>  (739) 
615.7764583659954

>  <distance_score>  (739) 
3.136597339767723

>  <path>  (739) 
/opt/xchem-fragalysis-2/maxwin/BulkDock/SCRATCH/505736/C2842-P186/C2842-P186.minimised.mol

>  <scratch_subdir>  (739) 
/opt/xchem-fragalysis-2/maxwin/BulkDock/SCRATCH/505736/C2842-P186

>  <fragmenstein_runtime>  (739) 
12.976855754852295

>  <fragmenstein_outcome>  (739) 
too moved

>  <fragmenstein_mode>  (739) 
expansion

>  <fragmenstein_error>  (739) 


$$$$
C2842-P57
     RDKit          3D

 67 70  0  0  0  0  0  0  0  0999 V2000
    2.7211   -4.7153   28.3154 C   0  0  0  0  0  0  0  0  0  0  0  0
    2.0181   -3.4469   28.6856 C   0  0  0  0  0  0  0  0  0  0  0  0
    1.6763   -3.0610   29.9343 C   0  0  0  0  0  0  0  0  0  0  0  0
    2.1127   -3.8390   31.1491 C   0  0  0  0  0  0  0  0  0  0  0  0
    1.4178   -5.0820   31.6428 C   0  0  0  0  0  0  0  0  0  0  0  0
    1.9520   -5.5069   32.8169 N   0  0  0  0  0  0  0  0  0  0  0  0
    1.3220   -6.4253   33.5400 N   0  0  0  0  0  0  0  0  0  0  0  0
    0.1509   -6.8916   33.0789 C   0  0  0  0  0  0  0  0  0  0  0  0
   -0.7276   -7.5010   34.1031 C   0  0  0  0  0  0  0  0  0  0  0  0
   -1.1078   -6.4625   35.1615 C   0  0  0  0  0  0  0  0  0  0  0  0
   -0.1714   -6.4349   36.3627 C   0  0  0  0  0  0  0  0  0  0  0  0
   -0.2275   -6.6127   31.7851 C   0  0  0  0  0  0  0  0  0  0  0  0
   -1.2736   -7.2386   31.1757 O   0  0  0  0  0  0  0  0  0  0  0  0
    0.3906   -5.7002   31.0164 N   0  0  0  0  0  0  0  0  0  0  0  0
    1.3401   -1.6192   30.0944 N   0  0  0  0  0  0  0  0  0  0  0  0
    1.6056   -0.7225   28.9801 N   0  0  0  0  0  0  0  0  0  0  0  0
    1.7067    0.7470   29.1574 C   0  0  0  0  0  0  0  0  0  0  0  0
    2.6512    1.1967   28.1139 N   0  0  0  0  0  0  0  0  0  0  0  0
    3.4917    2.2849   28.5912 N   0  0  0  0  0  0  0  0  0  0  0  0
    4.4066    2.6631   27.5150 C   0  0  0  0  0  0  0  0  0  0  0  0
    5.5066    3.9689   28.0828 S   0  0  0  0  0  0  0  0  0  0  0  0
    0.3801    1.5066   28.9821 C   0  0  0  0  0  0  0  0  0  0  0  0
    0.1852    2.5265   27.8261 C   0  0  0  0  0  0  0  0  0  0  0  0
   -1.3068    2.9098   27.8274 C   0  0  0  0  0  0  0  0  0  0  0  0
   -2.1315    1.6536   28.1044 C   0  0  0  0  0  0  0  0  0  0  0  0
   -0.9889    0.4525   28.6995 S   0  0  0  0  0  0  0  0  0  0  0  0
   -0.7887   -0.6680   27.4756 N   0  0  0  0  0  0  0  0  0  0  0  0
   -1.6587   -1.8015   27.7583 C   0  0  0  0  0  0  0  0  0  0  0  0
   -1.6837   -2.0324   29.2521 C   0  0  0  0  0  0  0  0  0  0  0  0
   -1.3581   -0.7354   30.0141 C   0  0  0  0  0  0  0  0  0  0  0  0
   -0.0244   -1.2359   31.1446 S   0  0  0  0  0  0  0  0  0  0  0  0
    0.3029   -0.0990   31.9780 O   0  0  0  0  0  0  0  0  0  0  0  0
   -0.4864   -2.4601   31.7922 O   0  0  0  0  0  0  0  0  0  0  0  0
    2.5625   -5.5233   29.0330 H   0  0  0  0  0  0  0  0  0  0  0  0
    3.7960   -4.5292   28.2269 H   0  0  0  0  0  0  0  0  0  0  0  0
    2.3713   -5.0656   27.3415 H   0  0  0  0  0  0  0  0  0  0  0  0
    1.8428   -2.7950   27.8372 H   0  0  0  0  0  0  0  0  0  0  0  0
    2.1509   -3.1409   31.9978 H   0  0  0  0  0  0  0  0  0  0  0  0
    3.1670   -4.1181   31.0011 H   0  0  0  0  0  0  0  0  0  0  0  0
   -0.2011   -8.3240   34.5848 H   0  0  0  0  0  0  0  0  0  0  0  0
   -1.6332   -7.8984   33.6353 H   0  0  0  0  0  0  0  0  0  0  0  0
   -1.1817   -5.4562   34.7336 H   0  0  0  0  0  0  0  0  0  0  0  0
   -2.0947   -6.7237   35.5244 H   0  0  0  0  0  0  0  0  0  0  0  0
   -0.1033   -7.4227   36.8295 H   0  0  0  0  0  0  0  0  0  0  0  0
   -0.5490   -5.7341   37.1144 H   0  0  0  0  0  0  0  0  0  0  0  0
    0.8366   -6.1150   36.0865 H   0  0  0  0  0  0  0  0  0  0  0  0
   -1.1746   -6.8654   30.2795 H   0  0  0  0  0  0  0  0  0  0  0  0
    0.9054   -0.8991   28.2430 H   0  0  0  0  0  0  0  0  0  0  0  0
    2.1326    0.9381   30.1504 H   0  0  0  0  0  0  0  0  0  0  0  0
    3.2308    0.3657   27.9484 H   0  0  0  0  0  0  0  0  0  0  0  0
    2.9391    3.1105   28.8323 H   0  0  0  0  0  0  0  0  0  0  0  0
    3.8570    3.0238   26.6385 H   0  0  0  0  0  0  0  0  0  0  0  0
    5.0257    1.8119   27.2117 H   0  0  0  0  0  0  0  0  0  0  0  0
    4.5519    4.8831   28.2966 H   0  0  0  0  0  0  0  0  0  0  0  0
    0.1601    2.0182   29.9286 H   0  0  0  0  0  0  0  0  0  0  0  0
    0.8057    3.4175   27.9617 H   0  0  0  0  0  0  0  0  0  0  0  0
    0.4359    2.0763   26.8576 H   0  0  0  0  0  0  0  0  0  0  0  0
   -1.4872    3.6464   28.6165 H   0  0  0  0  0  0  0  0  0  0  0  0
   -1.6009    3.3807   26.8839 H   0  0  0  0  0  0  0  0  0  0  0  0
   -2.8618    1.7999   28.8752 H   0  0  0  0  0  0  0  0  0  0  0  0
   -2.6074    1.2815   27.1944 H   0  0  0  0  0  0  0  0  0  0  0  0
   -1.0056   -0.3528   26.5235 H   0  0  0  0  0  0  0  0  0  0  0  0
   -1.2403   -2.6999   27.3376 H   0  0  0  0  0  0  0  0  0  0  0  0
   -2.6605   -1.6085   27.3698 H   0  0  0  0  0  0  0  0  0  0  0  0
   -0.9519   -2.8261   29.4342 H   0  0  0  0  0  0  0  0  0  0  0  0
   -2.5923   -2.4977   29.6202 H   0  0  0  0  0  0  0  0  0  0  0  0
   -2.2029   -0.3648   30.5977 H   0  0  0  0  0  0  0  0  0  0  0  0
  1  2  1  0
  2  3  2  3
  3  4  1  0
  4  5  1  0
  5  6  2  0
  6  7  1  0
  7  8  2  0
  8  9  1  0
  9 10  1  0
 10 11  1  0
  8 12  1  0
 12 13  1  0
 12 14  2  0
  3 15  1  0
 15 16  1  0
 16 17  1  0
 17 18  1  0
 18 19  1  0
 19 20  1  0
 20 21  1  0
 17 22  1  0
 22 23  1  0
 23 24  1  0
 24 25  1  0
 25 26  1  0
 26 27  1  0
 27 28  1  0
 28 29  1  0
 29 30  1  0
 30 31  1  0
 31 32  2  0
 31 33  2  0
 14  5  1  0
 31 15  1  0
 26 22  1  0
 30 26  1  0
  1 34  1  0
  1 35  1  0
  1 36  1  0
  2 37  1  0
  4 38  1  0
  4 39  1  0
  9 40  1  0
  9 41  1  0
 10 42  1  0
 10 43  1  0
 11 44  1  0
 11 45  1  0
 11 46  1  0
 13 47  1  0
 16 48  1  0
 17 49  1  0
 18 50  1  0
 19 51  1  0
 20 52  1  0
 20 53  1  0
 21 54  1  0
 22 55  1  0
 23 56  1  0
 23 57  1  0
 24 58  1  0
 24 59  1  0
 25 60  1  0
 25 61  1  0
 27 62  1  0
 28 63  1  0
 28 64  1  0
 29 65  1  0
 29 66  1  0
 30 67  1  0
M  END
>  <Energy>  (740) 
249.4333125588528

>  <compound_id>  (740) 
2842

>  <target_id>  (740) 
1

>  <reference_id>  (740) 
57

>  <inspiration_ids>  (740) 
[186, 57]

>  <energy_score>  (740) 
-84.8279145073393

>  <distance_score>  (740) 
2.384729192951514

>  <path>  (740) 
/opt/xchem-fragalysis-2/maxwin/BulkDock/SCRATCH/505736/C2842-P57/C2842-P57.minimised.mol

>  <scratch_subdir>  (740) 
/opt/xchem-fragalysis-2/maxwin/BulkDock/SCRATCH/505736/C2842-P57

>  <fragmenstein_runtime>  (740) 
8.55007791519165

>  <fragmenstein_outcome>  (740) 
too moved

>  <fragmenstein_mode>  (740) 
expansion

>  <fragmenstein_error>  (740) 


$$$$
C2844-P186
     RDKit          3D

 42 45  0  0  0  0  0  0  0  0999 V2000
   -0.9844   -2.4353   34.2193 O   0  0  0  0  0  0  0  0  0  0  0  0
   -0.5184   -2.7960   32.9034 S   0  0  0  0  0  0  0  0  0  0  0  0
   -1.1496   -3.8272   32.1155 O   0  0  0  0  0  0  0  0  0  0  0  0
    1.0999   -3.1484   33.1066 N   0  0  0  0  0  0  0  0  0  0  0  0
    2.0962   -3.1428   32.0393 C   0  0  0  0  0  0  0  0  0  0  0  0
    2.8713   -4.4619   32.0476 C   0  0  0  0  0  0  0  0  0  0  0  0
    1.8772   -5.4859   31.6417 C   0  0  0  0  0  0  0  0  0  0  0  0
    1.4348   -5.2297   30.3742 N   0  0  0  0  0  0  0  0  0  0  0  0
    0.1950   -5.4850   30.1719 C   0  0  0  0  0  0  0  0  0  0  0  0
   -0.6815   -4.3667   29.1750 S   0  0  0  0  0  0  0  0  0  0  0  0
    0.4821   -3.3027   28.2222 C   0  0  0  0  0  0  0  0  0  0  0  0
    0.1267   -1.8028   28.0354 C   0  0  0  0  0  0  0  0  0  0  0  0
    1.1467   -0.8807   27.7212 C   0  0  0  0  0  0  0  0  0  0  0  0
    0.9052    0.4842   27.7836 C   0  0  0  0  0  0  0  0  0  0  0  0
   -0.2849    0.9846   28.1139 N   0  0  0  0  0  0  0  0  0  0  0  0
   -1.2848    0.0955   28.2731 C   0  0  0  0  0  0  0  0  0  0  0  0
   -1.1457   -1.2785   28.2300 C   0  0  0  0  0  0  0  0  0  0  0  0
   -0.4162   -6.5120   30.9543 C   0  0  0  0  0  0  0  0  0  0  0  0
   -1.4458   -7.3130   30.7861 N   0  0  0  0  0  0  0  0  0  0  0  0
   -1.4157   -8.0364   31.9505 C   0  0  0  0  0  0  0  0  0  0  0  0
   -0.3884   -7.7930   32.7641 N   0  0  0  0  0  0  0  0  0  0  0  0
    0.2571   -6.8544   32.0831 N   0  0  0  0  0  0  0  0  0  0  0  0
    1.4048   -6.3246   32.5037 N   0  0  0  0  0  0  0  0  0  0  0  0
   -0.6438   -1.3305   31.9962 C   0  0  0  0  0  0  0  0  0  0  0  0
    0.2333   -0.4309   31.4370 C   0  0  0  0  0  0  0  0  0  0  0  0
   -0.4755    0.7193   31.0250 C   0  0  0  0  0  0  0  0  0  0  0  0
   -1.7974    0.6699   31.1386 N   0  0  0  0  0  0  0  0  0  0  0  0
   -2.2224   -0.7478   31.8404 S   0  0  0  0  0  0  0  0  0  0  0  0
    1.4149   -2.9703   34.0631 H   0  0  0  0  0  0  0  0  0  0  0  0
    2.7979   -2.3257   32.2423 H   0  0  0  0  0  0  0  0  0  0  0  0
    1.6414   -2.9292   31.0704 H   0  0  0  0  0  0  0  0  0  0  0  0
    3.6897   -4.4228   31.3219 H   0  0  0  0  0  0  0  0  0  0  0  0
    3.2807   -4.6898   33.0370 H   0  0  0  0  0  0  0  0  0  0  0  0
    1.4620   -3.3420   28.7068 H   0  0  0  0  0  0  0  0  0  0  0  0
    0.5934   -3.7273   27.2205 H   0  0  0  0  0  0  0  0  0  0  0  0
    2.1521   -1.2237   27.4915 H   0  0  0  0  0  0  0  0  0  0  0  0
    1.6813    1.2133   27.5694 H   0  0  0  0  0  0  0  0  0  0  0  0
   -2.2286    0.5617   28.4932 H   0  0  0  0  0  0  0  0  0  0  0  0
   -2.0048   -1.9143   28.4072 H   0  0  0  0  0  0  0  0  0  0  0  0
   -2.1659   -8.7663   32.2118 H   0  0  0  0  0  0  0  0  0  0  0  0
    1.3074   -0.5259   31.4086 H   0  0  0  0  0  0  0  0  0  0  0  0
   -0.0411    1.6203   30.6058 H   0  0  0  0  0  0  0  0  0  0  0  0
  1  2  2  0
  2  3  2  0
  2  4  1  0
  4  5  1  0
  5  6  1  0
  6  7  1  0
  7  8  1  0
  8  9  2  0
  9 10  1  0
 10 11  1  0
 11 12  1  0
 12 13  2  0
 13 14  1  0
 14 15  2  0
 15 16  1  0
 16 17  2  0
  9 18  1  0
 18 19  2  0
 19 20  1  0
 20 21  2  0
 21 22  1  0
 22 23  1  0
  2 24  1  0
 24 25  2  0
 25 26  1  0
 26 27  2  0
 27 28  1  0
 23  7  2  0
 28 24  1  0
 17 12  1  0
 22 18  1  0
  4 29  1  0
  5 30  1  0
  5 31  1  0
  6 32  1  0
  6 33  1  0
 11 34  1  0
 11 35  1  0
 13 36  1  0
 14 37  1  0
 16 38  1  0
 17 39  1  0
 20 40  1  0
 25 41  1  0
 26 42  1  0
M  END
>  <Energy>  (741) 
-62.675075638535461

>  <compound_id>  (741) 
2844

>  <target_id>  (741) 
1

>  <reference_id>  (741) 
186

>  <inspiration_ids>  (741) 
[186, 70]

>  <energy_score>  (741) 
-48.45303817888393

>  <distance_score>  (741) 
3.5180940486196626

>  <path>  (741) 
/opt/xchem-fragalysis-2/maxwin/BulkDock/SCRATCH/505736/C2844-P186/C2844-P186.minimised.mol

>  <scratch_subdir>  (741) 
/opt/xchem-fragalysis-2/maxwin/BulkDock/SCRATCH/505736/C2844-P186

>  <fragmenstein_runtime>  (741) 
10.744233131408691

>  <fragmenstein_outcome>  (741) 
too moved

>  <fragmenstein_mode>  (741) 
expansion

>  <fragmenstein_error>  (741) 


$$$$
C2844-P70
     RDKit          3D

 42 45  0  0  0  0  0  0  0  0999 V2000
   -1.3724   -2.1602   33.8828 O   0  0  0  0  0  0  0  0  0  0  0  0
   -0.6767   -2.5512   32.6809 S   0  0  0  0  0  0  0  0  0  0  0  0
   -1.1691   -3.6269   31.8452 O   0  0  0  0  0  0  0  0  0  0  0  0
    0.8955   -2.8461   33.1346 N   0  0  0  0  0  0  0  0  0  0  0  0
    2.0044   -3.1442   32.2293 C   0  0  0  0  0  0  0  0  0  0  0  0
    2.5000   -4.5728   32.4181 C   0  0  0  0  0  0  0  0  0  0  0  0
    1.4180   -5.4589   31.9301 C   0  0  0  0  0  0  0  0  0  0  0  0
    1.1821   -5.2361   30.6038 N   0  0  0  0  0  0  0  0  0  0  0  0
    0.0880   -5.6884   30.1104 C   0  0  0  0  0  0  0  0  0  0  0  0
   -0.4434   -4.9120   28.6181 S   0  0  0  0  0  0  0  0  0  0  0  0
    0.2861   -3.1661   28.7375 C   0  0  0  0  0  0  0  0  0  0  0  0
   -0.2293   -1.8484   28.0406 C   0  0  0  0  0  0  0  0  0  0  0  0
    0.6845   -0.7873   27.8069 C   0  0  0  0  0  0  0  0  0  0  0  0
    0.2599    0.4733   27.3658 C   0  0  0  0  0  0  0  0  0  0  0  0
   -1.0121    0.7557   27.0591 N   0  0  0  0  0  0  0  0  0  0  0  0
   -1.8807   -0.2431   27.2943 C   0  0  0  0  0  0  0  0  0  0  0  0
   -1.5612   -1.5049   27.8249 C   0  0  0  0  0  0  0  0  0  0  0  0
   -0.6305   -6.6856   30.8449 C   0  0  0  0  0  0  0  0  0  0  0  0
   -1.5636   -7.5685   30.5472 N   0  0  0  0  0  0  0  0  0  0  0  0
   -1.7357   -8.2034   31.7570 C   0  0  0  0  0  0  0  0  0  0  0  0
   -0.9823   -7.7716   32.7660 N   0  0  0  0  0  0  0  0  0  0  0  0
   -0.2430   -6.8406   32.1443 N   0  0  0  0  0  0  0  0  0  0  0  0
    0.7303   -6.1735   32.7578 N   0  0  0  0  0  0  0  0  0  0  0  0
   -0.7912   -1.1340   31.6841 C   0  0  0  0  0  0  0  0  0  0  0  0
   -1.7838   -0.6645   30.8630 C   0  0  0  0  0  0  0  0  0  0  0  0
   -1.3770    0.5413   30.2559 C   0  0  0  0  0  0  0  0  0  0  0  0
   -0.1926    1.0282   30.6110 N   0  0  0  0  0  0  0  0  0  0  0  0
    0.4694   -0.0039   31.7181 S   0  0  0  0  0  0  0  0  0  0  0  0
    0.9841   -3.1253   34.1140 H   0  0  0  0  0  0  0  0  0  0  0  0
    2.8230   -2.4678   32.5047 H   0  0  0  0  0  0  0  0  0  0  0  0
    1.7655   -2.9002   31.1959 H   0  0  0  0  0  0  0  0  0  0  0  0
    3.4063   -4.7446   31.8274 H   0  0  0  0  0  0  0  0  0  0  0  0
    2.7246   -4.7869   33.4684 H   0  0  0  0  0  0  0  0  0  0  0  0
    1.3378   -3.2887   28.4542 H   0  0  0  0  0  0  0  0  0  0  0  0
    0.2523   -2.9179   29.7939 H   0  0  0  0  0  0  0  0  0  0  0  0
    1.7448   -0.9301   28.0026 H   0  0  0  0  0  0  0  0  0  0  0  0
    0.9716    1.2835   27.2319 H   0  0  0  0  0  0  0  0  0  0  0  0
   -2.8921    0.0216   27.0406 H   0  0  0  0  0  0  0  0  0  0  0  0
   -2.3549   -2.2090   28.0303 H   0  0  0  0  0  0  0  0  0  0  0  0
   -2.4514   -9.0029   31.9086 H   0  0  0  0  0  0  0  0  0  0  0  0
   -2.7113   -1.1840   30.7193 H   0  0  0  0  0  0  0  0  0  0  0  0
   -1.9446    1.1121   29.5330 H   0  0  0  0  0  0  0  0  0  0  0  0
  1  2  2  0
  2  3  2  0
  2  4  1  0
  4  5  1  0
  5  6  1  0
  6  7  1  0
  7  8  1  0
  8  9  2  0
  9 10  1  0
 10 11  1  0
 11 12  1  0
 12 13  2  0
 13 14  1  0
 14 15  2  0
 15 16  1  0
 16 17  2  0
  9 18  1  0
 18 19  2  0
 19 20  1  0
 20 21  2  0
 21 22  1  0
 22 23  1  0
  2 24  1  0
 24 25  2  0
 25 26  1  0
 26 27  2  0
 27 28  1  0
 23  7  2  0
 28 24  1  0
 17 12  1  0
 22 18  1  0
  4 29  1  0
  5 30  1  0
  5 31  1  0
  6 32  1  0
  6 33  1  0
 11 34  1  0
 11 35  1  0
 13 36  1  0
 14 37  1  0
 16 38  1  0
 17 39  1  0
 20 40  1  0
 25 41  1  0
 26 42  1  0
M  END
>  <Energy>  (742) 
-69.775304712271179

>  <compound_id>  (742) 
2844

>  <target_id>  (742) 
1

>  <reference_id>  (742) 
70

>  <inspiration_ids>  (742) 
[186, 70]

>  <energy_score>  (742) 
-55.55326725262137

>  <distance_score>  (742) 
3.3137645213369575

>  <path>  (742) 
/opt/xchem-fragalysis-2/maxwin/BulkDock/SCRATCH/505736/C2844-P70/C2844-P70.minimised.mol

>  <scratch_subdir>  (742) 
/opt/xchem-fragalysis-2/maxwin/BulkDock/SCRATCH/505736/C2844-P70

>  <fragmenstein_runtime>  (742) 
6.668524503707886

>  <fragmenstein_outcome>  (742) 
too moved

>  <fragmenstein_mode>  (742) 
expansion

>  <fragmenstein_error>  (742) 


$$$$
C2845-P186
     RDKit          3D

 42 46  0  0  0  0  0  0  0  0999 V2000
   -1.6724   -8.9684   36.2136 O   0  0  0  0  0  0  0  0  0  0  0  0
   -2.7727   -9.4765   36.0459 C   0  0  0  0  0  0  0  0  0  0  0  0
   -3.8217   -8.7030   35.7492 N   0  0  0  0  0  0  0  0  0  0  0  0
   -4.0288   -9.0618   34.5519 C   0  0  0  0  0  0  0  0  0  0  0  0
   -2.5105   -8.6594   33.2109 S   0  0  0  0  0  0  0  0  0  0  0  0
   -1.3745   -7.3992   33.4876 C   0  0  0  0  0  0  0  0  0  0  0  0
   -0.6131   -7.1891   32.4472 N   0  0  0  0  0  0  0  0  0  0  0  0
    0.3995   -6.2692   32.5310 C   0  0  0  0  0  0  0  0  0  0  0  0
    1.1111   -5.9405   31.2449 C   0  0  0  0  0  0  0  0  0  0  0  0
    0.5869   -4.6456   30.6523 C   0  0  0  0  0  0  0  0  0  0  0  0
    0.5490   -3.5588   31.6483 N   0  0  0  0  0  0  0  0  0  0  0  0
   -0.9194   -2.7586   31.8696 S   0  0  0  0  0  0  0  0  0  0  0  0
   -0.7722   -1.9030   33.0209 O   0  0  0  0  0  0  0  0  0  0  0  0
   -1.9767   -3.7448   31.7602 O   0  0  0  0  0  0  0  0  0  0  0  0
   -1.0851   -1.7477   30.4538 C   0  0  0  0  0  0  0  0  0  0  0  0
   -1.1216   -2.0173   29.1021 C   0  0  0  0  0  0  0  0  0  0  0  0
   -1.1660   -0.8054   28.3741 C   0  0  0  0  0  0  0  0  0  0  0  0
   -1.2226    0.3244   29.0726 N   0  0  0  0  0  0  0  0  0  0  0  0
   -1.1597   -0.0664   30.6837 S   0  0  0  0  0  0  0  0  0  0  0  0
    0.7786   -5.6436   33.5971 N   0  0  0  0  0  0  0  0  0  0  0  0
   -0.0244   -5.8676   34.6367 N   0  0  0  0  0  0  0  0  0  0  0  0
    0.1452   -5.2249   35.7893 N   0  0  0  0  0  0  0  0  0  0  0  0
   -0.9642   -5.5835   36.4378 C   0  0  0  0  0  0  0  0  0  0  0  0
   -1.8015   -6.4273   35.7524 N   0  0  0  0  0  0  0  0  0  0  0  0
   -1.1402   -6.6383   34.6467 C   0  0  0  0  0  0  0  0  0  0  0  0
   -4.9327  -10.2791   34.3919 N   0  0  0  0  0  0  0  0  0  0  0  0
   -4.7853  -11.4171   35.2805 C   0  0  0  0  0  0  0  0  0  0  0  0
   -4.5453  -13.4380   34.3378 C   0  0  0  0  0  0  0  0  0  0  0  0
   -2.6402  -13.9253   34.0623 C   0  0  0  0  0  0  0  0  0  0  0  0
   -1.2822  -12.1050   35.3853 S   0  0  0  0  0  0  0  0  0  0  0  0
   -3.1693  -10.9046   35.8643 C   0  0  0  0  0  0  0  0  0  0  0  0
    2.1777   -5.8359   31.4639 H   0  0  0  0  0  0  0  0  0  0  0  0
    0.9740   -6.7524   30.5255 H   0  0  0  0  0  0  0  0  0  0  0  0
    1.2391   -4.3293   29.8307 H   0  0  0  0  0  0  0  0  0  0  0  0
   -0.3974   -4.8262   30.2124 H   0  0  0  0  0  0  0  0  0  0  0  0
    0.9945   -3.7399   32.5575 H   0  0  0  0  0  0  0  0  0  0  0  0
   -1.0925   -3.0049   28.6627 H   0  0  0  0  0  0  0  0  0  0  0  0
   -1.1603   -0.7379   27.2990 H   0  0  0  0  0  0  0  0  0  0  0  0
   -1.1757   -5.2184   37.4356 H   0  0  0  0  0  0  0  0  0  0  0  0
   -5.5868  -10.3410   33.6123 H   0  0  0  0  0  0  0  0  0  0  0  0
   -5.3048  -13.6675   33.5837 H   0  0  0  0  0  0  0  0  0  0  0  0
   -2.0107  -14.7343   33.6859 H   0  0  0  0  0  0  0  0  0  0  0  0
  1  2  2  0
  2  3  1  0
  3  4  2  0
  4  5  1  0
  5  6  1  0
  6  7  2  0
  7  8  1  0
  8  9  1  0
  9 10  1  0
 10 11  1  0
 11 12  1  0
 12 13  2  0
 12 14  2  0
 12 15  1  0
 15 16  2  0
 16 17  1  0
 17 18  2  0
 18 19  1  0
  8 20  2  0
 20 21  1  0
 21 22  1  0
 22 23  2  0
 23 24  1  0
 24 25  2  0
  4 26  1  0
 26 27  1  0
 27 28  1  0
 28 29  2  0
 29 30  1  0
 30 31  1  0
 31  2  1  0
 25  6  1  0
 31 27  2  0
 19 15  1  0
 25 21  1  0
  9 32  1  0
  9 33  1  0
 10 34  1  0
 10 35  1  0
 11 36  1  0
 16 37  1  0
 17 38  1  0
 23 39  1  0
 26 40  1  0
 28 41  1  0
 29 42  1  0
M  END
>  <Energy>  (743) 
667.97512638927799

>  <compound_id>  (743) 
2845

>  <target_id>  (743) 
1

>  <reference_id>  (743) 
186

>  <inspiration_ids>  (743) 
[186, 72]

>  <energy_score>  (743) 
750.5462466758913

>  <distance_score>  (743) 
1.0797173051471796

>  <path>  (743) 
/opt/xchem-fragalysis-2/maxwin/BulkDock/SCRATCH/505736/C2845-P186/C2845-P186.minimised.mol

>  <scratch_subdir>  (743) 
/opt/xchem-fragalysis-2/maxwin/BulkDock/SCRATCH/505736/C2845-P186

>  <fragmenstein_runtime>  (743) 
6.539722442626953

>  <fragmenstein_outcome>  (743) 
too moved

>  <fragmenstein_mode>  (743) 
expansion

>  <fragmenstein_error>  (743) 


$$$$
C2845-P72
     RDKit          3D

 42 46  0  0  0  0  0  0  0  0999 V2000
   -0.6953  -13.9515   34.2212 O   0  0  0  0  0  0  0  0  0  0  0  0
   -1.2159  -12.8241   34.1625 C   0  0  0  0  0  0  0  0  0  0  0  0
   -1.4281  -12.1507   32.1775 N   0  0  0  0  0  0  0  0  0  0  0  0
   -1.6350  -10.3516   32.0890 C   0  0  0  0  0  0  0  0  0  0  0  0
   -1.1366   -9.1983   30.8067 S   0  0  0  0  0  0  0  0  0  0  0  0
   -0.2475   -7.7953   31.3804 C   0  0  0  0  0  0  0  0  0  0  0  0
    0.2804   -7.0379   30.4584 N   0  0  0  0  0  0  0  0  0  0  0  0
    1.0650   -5.9617   30.8330 C   0  0  0  0  0  0  0  0  0  0  0  0
    1.6142   -5.0829   29.7409 C   0  0  0  0  0  0  0  0  0  0  0  0
    0.6458   -3.9283   29.5370 C   0  0  0  0  0  0  0  0  0  0  0  0
    0.6375   -3.0455   30.7282 N   0  0  0  0  0  0  0  0  0  0  0  0
   -0.7703   -2.1474   30.9840 S   0  0  0  0  0  0  0  0  0  0  0  0
   -0.5654   -1.3563   32.1748 O   0  0  0  0  0  0  0  0  0  0  0  0
   -1.8804   -3.0751   30.8926 O   0  0  0  0  0  0  0  0  0  0  0  0
   -0.8982   -1.0535   29.6238 C   0  0  0  0  0  0  0  0  0  0  0  0
   -1.5467   -1.0793   28.4071 C   0  0  0  0  0  0  0  0  0  0  0  0
   -1.2244    0.0800   27.6500 C   0  0  0  0  0  0  0  0  0  0  0  0
   -0.3657    0.9351   28.1985 N   0  0  0  0  0  0  0  0  0  0  0  0
    0.0714    0.3472   29.6874 S   0  0  0  0  0  0  0  0  0  0  0  0
    1.3598   -5.6115   32.0422 N   0  0  0  0  0  0  0  0  0  0  0  0
    0.7963   -6.3725   32.9570 N   0  0  0  0  0  0  0  0  0  0  0  0
    1.0234   -6.1888   34.2545 N   0  0  0  0  0  0  0  0  0  0  0  0
    0.2460   -7.1223   34.7942 C   0  0  0  0  0  0  0  0  0  0  0  0
   -0.4269   -7.9029   33.8877 N   0  0  0  0  0  0  0  0  0  0  0  0
   -0.0241   -7.4283   32.7348 C   0  0  0  0  0  0  0  0  0  0  0  0
   -2.3726   -9.3873   33.3752 N   0  0  0  0  0  0  0  0  0  0  0  0
   -2.9673   -9.9255   34.9233 C   0  0  0  0  0  0  0  0  0  0  0  0
   -2.7176   -9.0888   36.0081 C   0  0  0  0  0  0  0  0  0  0  0  0
   -3.9520   -9.3950   36.4583 C   0  0  0  0  0  0  0  0  0  0  0  0
   -4.2238  -10.4292   35.2526 S   0  0  0  0  0  0  0  0  0  0  0  0
   -2.1886  -11.5429   35.6047 C   0  0  0  0  0  0  0  0  0  0  0  0
    2.6006   -4.7100   30.0423 H   0  0  0  0  0  0  0  0  0  0  0  0
    1.7537   -5.6636   28.8292 H   0  0  0  0  0  0  0  0  0  0  0  0
    0.9574   -3.3345   28.6714 H   0  0  0  0  0  0  0  0  0  0  0  0
   -0.3555   -4.3226   29.3377 H   0  0  0  0  0  0  0  0  0  0  0  0
    0.9416   -3.4658   31.6133 H   0  0  0  0  0  0  0  0  0  0  0  0
   -2.1950   -1.8745   28.0692 H   0  0  0  0  0  0  0  0  0  0  0  0
   -1.6070    0.3146   26.6641 H   0  0  0  0  0  0  0  0  0  0  0  0
    0.1745   -7.2465   35.8690 H   0  0  0  0  0  0  0  0  0  0  0  0
   -1.8152   -8.5578   33.5499 H   0  0  0  0  0  0  0  0  0  0  0  0
   -2.0674   -8.2306   36.0521 H   0  0  0  0  0  0  0  0  0  0  0  0
   -4.8004   -8.8779   36.8687 H   0  0  0  0  0  0  0  0  0  0  0  0
  1  2  2  0
  2  3  1  0
  3  4  2  0
  4  5  1  0
  5  6  1  0
  6  7  2  0
  7  8  1  0
  8  9  1  0
  9 10  1  0
 10 11  1  0
 11 12  1  0
 12 13  2  0
 12 14  2  0
 12 15  1  0
 15 16  2  0
 16 17  1  0
 17 18  2  0
 18 19  1  0
  8 20  2  0
 20 21  1  0
 21 22  1  0
 22 23  2  0
 23 24  1  0
 24 25  2  0
  4 26  1  0
 26 27  1  0
 27 28  1  0
 28 29  2  0
 29 30  1  0
 30 31  1  0
 31  2  1  0
 25  6  1  0
 31 27  2  0
 19 15  1  0
 25 21  1  0
  9 32  1  0
  9 33  1  0
 10 34  1  0
 10 35  1  0
 11 36  1  0
 16 37  1  0
 17 38  1  0
 23 39  1  0
 26 40  1  0
 28 41  1  0
 29 42  1  0
M  END
>  <Energy>  (744) 
725.59245402844579

>  <compound_id>  (744) 
2845

>  <target_id>  (744) 
1

>  <reference_id>  (744) 
72

>  <inspiration_ids>  (744) 
[186, 72]

>  <energy_score>  (744) 
808.1635743150454

>  <distance_score>  (744) 
1.1257715499819345

>  <path>  (744) 
/opt/xchem-fragalysis-2/maxwin/BulkDock/SCRATCH/505736/C2845-P72/C2845-P72.minimised.mol

>  <scratch_subdir>  (744) 
/opt/xchem-fragalysis-2/maxwin/BulkDock/SCRATCH/505736/C2845-P72

>  <fragmenstein_runtime>  (744) 
7.032012701034546

>  <fragmenstein_outcome>  (744) 
too moved

>  <fragmenstein_mode>  (744) 
expansion

>  <fragmenstein_error>  (744) 


$$$$
C2845-P186
     RDKit          3D

 42 46  0  0  0  0  0  0  0  0999 V2000
    1.6305   -2.3527   34.7587 O   0  0  0  0  0  0  0  0  0  0  0  0
    1.6979   -3.5342   35.0766 C   0  0  0  0  0  0  0  0  0  0  0  0
    0.5895   -4.3025   35.3888 N   0  0  0  0  0  0  0  0  0  0  0  0
    0.8136   -5.5092   35.7984 C   0  0  0  0  0  0  0  0  0  0  0  0
   -0.4037   -6.6962   35.4418 S   0  0  0  0  0  0  0  0  0  0  0  0
   -0.0140   -6.7040   33.7233 C   0  0  0  0  0  0  0  0  0  0  0  0
    0.9970   -6.1031   33.1685 N   0  0  0  0  0  0  0  0  0  0  0  0
    1.0735   -6.0794   31.7873 C   0  0  0  0  0  0  0  0  0  0  0  0
    1.9842   -5.0541   31.1731 C   0  0  0  0  0  0  0  0  0  0  0  0
    1.1482   -3.8587   30.7483 C   0  0  0  0  0  0  0  0  0  0  0  0
    0.5670   -3.2024   31.9279 N   0  0  0  0  0  0  0  0  0  0  0  0
   -1.0357   -2.6971   31.8592 S   0  0  0  0  0  0  0  0  0  0  0  0
   -1.2804   -1.8236   32.9787 O   0  0  0  0  0  0  0  0  0  0  0  0
   -1.8500   -3.8651   31.5888 O   0  0  0  0  0  0  0  0  0  0  0  0
   -1.1488   -1.7246   30.4076 C   0  0  0  0  0  0  0  0  0  0  0  0
   -1.2696   -2.0418   29.0720 C   0  0  0  0  0  0  0  0  0  0  0  0
   -1.1793   -0.8684   28.2896 C   0  0  0  0  0  0  0  0  0  0  0  0
   -1.0445    0.2853   28.9368 N   0  0  0  0  0  0  0  0  0  0  0  0
   -0.9767   -0.0410   30.5623 S   0  0  0  0  0  0  0  0  0  0  0  0
    0.3899   -6.8101   30.9720 N   0  0  0  0  0  0  0  0  0  0  0  0
   -0.5577   -7.4873   31.5884 N   0  0  0  0  0  0  0  0  0  0  0  0
   -1.4886   -8.1293   30.9020 N   0  0  0  0  0  0  0  0  0  0  0  0
   -2.3592   -8.3449   31.8821 C   0  0  0  0  0  0  0  0  0  0  0  0
   -1.9694   -8.0794   33.1489 N   0  0  0  0  0  0  0  0  0  0  0  0
   -0.8611   -7.4500   32.9044 C   0  0  0  0  0  0  0  0  0  0  0  0
    1.9950   -6.0738   36.2226 N   0  0  0  0  0  0  0  0  0  0  0  0
    3.0490   -5.5548   35.5680 C   0  0  0  0  0  0  0  0  0  0  0  0
    4.3052   -6.1480   35.3336 C   0  0  0  0  0  0  0  0  0  0  0  0
    5.0937   -5.3331   34.5448 C   0  0  0  0  0  0  0  0  0  0  0  0
    4.2700   -3.8996   34.0768 S   0  0  0  0  0  0  0  0  0  0  0  0
    2.9088   -4.3258   34.9842 C   0  0  0  0  0  0  0  0  0  0  0  0
    2.7605   -4.7688   31.8789 H   0  0  0  0  0  0  0  0  0  0  0  0
    2.4680   -5.4877   30.2913 H   0  0  0  0  0  0  0  0  0  0  0  0
    1.7766   -3.1335   30.2208 H   0  0  0  0  0  0  0  0  0  0  0  0
    0.3697   -4.1962   30.0571 H   0  0  0  0  0  0  0  0  0  0  0  0
    1.1472   -2.5542   32.4735 H   0  0  0  0  0  0  0  0  0  0  0  0
   -1.3825   -3.0458   28.6852 H   0  0  0  0  0  0  0  0  0  0  0  0
   -1.2065   -0.8496   27.2122 H   0  0  0  0  0  0  0  0  0  0  0  0
   -3.3636   -8.6192   31.6281 H   0  0  0  0  0  0  0  0  0  0  0  0
    1.9535   -7.0519   36.4882 H   0  0  0  0  0  0  0  0  0  0  0  0
    4.6379   -7.1061   35.7133 H   0  0  0  0  0  0  0  0  0  0  0  0
    6.1066   -5.5106   34.2073 H   0  0  0  0  0  0  0  0  0  0  0  0
  1  2  2  0
  2  3  1  0
  3  4  2  0
  4  5  1  0
  5  6  1  0
  6  7  2  0
  7  8  1  0
  8  9  1  0
  9 10  1  0
 10 11  1  0
 11 12  1  0
 12 13  2  0
 12 14  2  0
 12 15  1  0
 15 16  2  0
 16 17  1  0
 17 18  2  0
 18 19  1  0
  8 20  2  0
 20 21  1  0
 21 22  1  0
 22 23  2  0
 23 24  1  0
 24 25  2  0
  4 26  1  0
 26 27  1  0
 27 28  1  0
 28 29  2  0
 29 30  1  0
 30 31  1  0
 31  2  1  0
 25  6  1  0
 31 27  2  0
 19 15  1  0
 25 21  1  0
  9 32  1  0
  9 33  1  0
 10 34  1  0
 10 35  1  0
 11 36  1  0
 16 37  1  0
 17 38  1  0
 23 39  1  0
 26 40  1  0
 28 41  1  0
 29 42  1  0
M  END
>  <Energy>  (745) 
-154.67182001257092

>  <compound_id>  (745) 
2845

>  <target_id>  (745) 
1

>  <reference_id>  (745) 
186

>  <inspiration_ids>  (745) 
[186, 78]

>  <energy_score>  (745) 
-66.5902546262369

>  <distance_score>  (745) 
1.381613632508178

>  <path>  (745) 
/opt/xchem-fragalysis-2/maxwin/BulkDock/SCRATCH/505736/C2845-P186/C2845-P186.minimised.mol

>  <scratch_subdir>  (745) 
/opt/xchem-fragalysis-2/maxwin/BulkDock/SCRATCH/505736/C2845-P186

>  <fragmenstein_runtime>  (745) 
6.333963632583618

>  <fragmenstein_outcome>  (745) 
too moved

>  <fragmenstein_mode>  (745) 
expansion

>  <fragmenstein_error>  (745) 


$$$$
C2845-P78
     RDKit          3D

 42 46  0  0  0  0  0  0  0  0999 V2000
    1.6892   -2.2957   34.6239 O   0  0  0  0  0  0  0  0  0  0  0  0
    1.7624   -3.4693   34.9674 C   0  0  0  0  0  0  0  0  0  0  0  0
    0.6640   -4.2265   35.3373 N   0  0  0  0  0  0  0  0  0  0  0  0
    0.8999   -5.4231   35.7681 C   0  0  0  0  0  0  0  0  0  0  0  0
   -0.3339   -6.6114   35.4884 S   0  0  0  0  0  0  0  0  0  0  0  0
    0.0090   -6.6786   33.7602 C   0  0  0  0  0  0  0  0  0  0  0  0
    0.9986   -6.0950   33.1504 N   0  0  0  0  0  0  0  0  0  0  0  0
    1.0353   -6.1289   31.7669 C   0  0  0  0  0  0  0  0  0  0  0  0
    1.9264   -5.1258   31.0839 C   0  0  0  0  0  0  0  0  0  0  0  0
    1.0845   -3.9401   30.6218 C   0  0  0  0  0  0  0  0  0  0  0  0
    0.5728   -3.1976   31.7825 N   0  0  0  0  0  0  0  0  0  0  0  0
   -0.9779   -2.5444   31.6991 S   0  0  0  0  0  0  0  0  0  0  0  0
   -1.1534   -1.6744   32.8354 O   0  0  0  0  0  0  0  0  0  0  0  0
   -1.8885   -3.6384   31.4273 O   0  0  0  0  0  0  0  0  0  0  0  0
   -1.0156   -1.5256   30.2687 C   0  0  0  0  0  0  0  0  0  0  0  0
   -1.3638   -1.7242   28.9491 C   0  0  0  0  0  0  0  0  0  0  0  0
   -1.1647   -0.5373   28.1932 C   0  0  0  0  0  0  0  0  0  0  0  0
   -0.6598    0.5045   28.8492 N   0  0  0  0  0  0  0  0  0  0  0  0
   -0.4380    0.0660   30.4353 S   0  0  0  0  0  0  0  0  0  0  0  0
    0.3329   -6.8992   31.0041 N   0  0  0  0  0  0  0  0  0  0  0  0
   -0.6029   -7.5453   31.6775 N   0  0  0  0  0  0  0  0  0  0  0  0
   -1.5787   -8.1807   31.0476 N   0  0  0  0  0  0  0  0  0  0  0  0
   -2.4310   -8.3200   32.0588 C   0  0  0  0  0  0  0  0  0  0  0  0
   -1.9955   -8.0177   33.3005 N   0  0  0  0  0  0  0  0  0  0  0  0
   -0.8688   -7.4476   32.9986 C   0  0  0  0  0  0  0  0  0  0  0  0
    2.0932   -5.9832   36.1641 N   0  0  0  0  0  0  0  0  0  0  0  0
    3.1268   -5.4790   35.4667 C   0  0  0  0  0  0  0  0  0  0  0  0
    4.3770   -6.0762   35.2130 C   0  0  0  0  0  0  0  0  0  0  0  0
    5.1411   -5.2819   34.3803 C   0  0  0  0  0  0  0  0  0  0  0  0
    4.2999   -3.8648   33.8943 S   0  0  0  0  0  0  0  0  0  0  0  0
    2.9685   -4.2654   34.8562 C   0  0  0  0  0  0  0  0  0  0  0  0
    2.7212   -4.8117   31.7572 H   0  0  0  0  0  0  0  0  0  0  0  0
    2.3927   -5.6038   30.2150 H   0  0  0  0  0  0  0  0  0  0  0  0
    1.7031   -3.2628   30.0235 H   0  0  0  0  0  0  0  0  0  0  0  0
    0.2641   -4.2952   29.9892 H   0  0  0  0  0  0  0  0  0  0  0  0
    1.2097   -2.5796   32.2978 H   0  0  0  0  0  0  0  0  0  0  0  0
   -1.7424   -2.6540   28.5567 H   0  0  0  0  0  0  0  0  0  0  0  0
   -1.3770   -0.4147   27.1369 H   0  0  0  0  0  0  0  0  0  0  0  0
   -3.4535   -8.5718   31.8486 H   0  0  0  0  0  0  0  0  0  0  0  0
    2.0585   -6.9604   36.4330 H   0  0  0  0  0  0  0  0  0  0  0  0
    4.7224   -7.0235   35.6083 H   0  0  0  0  0  0  0  0  0  0  0  0
    6.1445   -5.4670   34.0195 H   0  0  0  0  0  0  0  0  0  0  0  0
  1  2  2  0
  2  3  1  0
  3  4  2  0
  4  5  1  0
  5  6  1  0
  6  7  2  0
  7  8  1  0
  8  9  1  0
  9 10  1  0
 10 11  1  0
 11 12  1  0
 12 13  2  0
 12 14  2  0
 12 15  1  0
 15 16  2  0
 16 17  1  0
 17 18  2  0
 18 19  1  0
  8 20  2  0
 20 21  1  0
 21 22  1  0
 22 23  2  0
 23 24  1  0
 24 25  2  0
  4 26  1  0
 26 27  1  0
 27 28  1  0
 28 29  2  0
 29 30  1  0
 30 31  1  0
 31  2  1  0
 25  6  1  0
 31 27  2  0
 19 15  1  0
 25 21  1  0
  9 32  1  0
  9 33  1  0
 10 34  1  0
 10 35  1  0
 11 36  1  0
 16 37  1  0
 17 38  1  0
 23 39  1  0
 26 40  1  0
 28 41  1  0
 29 42  1  0
M  END
>  <Energy>  (746) 
-155.62256443202861

>  <compound_id>  (746) 
2845

>  <target_id>  (746) 
1

>  <reference_id>  (746) 
78

>  <inspiration_ids>  (746) 
[186, 78]

>  <energy_score>  (746) 
-67.54099904569509

>  <distance_score>  (746) 
1.3705631348992888

>  <path>  (746) 
/opt/xchem-fragalysis-2/maxwin/BulkDock/SCRATCH/505736/C2845-P78/C2845-P78.minimised.mol

>  <scratch_subdir>  (746) 
/opt/xchem-fragalysis-2/maxwin/BulkDock/SCRATCH/505736/C2845-P78

>  <fragmenstein_runtime>  (746) 
5.8962037563323975

>  <fragmenstein_outcome>  (746) 
too moved

>  <fragmenstein_mode>  (746) 
expansion

>  <fragmenstein_error>  (746) 


$$$$
C2847-P186
     RDKit          3D

 64 68  0  0  0  0  0  0  0  0999 V2000
   -2.1891   -2.4710   33.5530 O   0  0  0  0  0  0  0  0  0  0  0  0
   -2.1488   -2.2154   34.6879 C   0  0  0  0  0  0  0  0  0  0  0  0
   -3.2161   -1.5821   35.6094 N   0  0  0  0  0  0  0  0  0  0  0  0
   -4.5368   -1.0388   35.2980 C   0  0  0  0  0  0  0  0  0  0  0  0
   -5.3401   -0.6947   36.5777 C   0  0  0  0  0  0  0  0  0  0  0  0
   -5.3451   -1.4292   37.6672 N   0  0  0  0  0  0  0  0  0  0  0  0
   -6.2426   -0.8653   38.5412 N   0  0  0  0  0  0  0  0  0  0  0  0
   -6.7519    0.2070   37.9696 C   0  0  0  0  0  0  0  0  0  0  0  0
   -7.6896    1.0953   38.5740 C   0  0  0  0  0  0  0  0  0  0  0  0
   -8.2945    0.9318   39.8061 C   0  0  0  0  0  0  0  0  0  0  0  0
   -9.1771    2.0025   40.1316 C   0  0  0  0  0  0  0  0  0  0  0  0
   -9.2146    2.9544   39.1384 C   0  0  0  0  0  0  0  0  0  0  0  0
   -8.1893    2.5530   37.8305 S   0  0  0  0  0  0  0  0  0  0  0  0
   -6.2230    0.3360   36.7188 N   0  0  0  0  0  0  0  0  0  0  0  0
   -4.5129    0.0464   34.1839 C   0  0  0  0  0  0  0  0  0  0  0  0
   -5.7974   -0.5798   33.6114 C   0  0  0  0  0  0  0  0  0  0  0  0
   -5.3908   -1.8846   34.3034 C   0  0  0  0  0  0  0  0  0  0  0  0
   -0.8440   -2.5827   35.5013 C   0  0  0  0  0  0  0  0  0  0  0  0
   -1.2506   -3.9382   36.6712 S   0  0  0  0  0  0  0  0  0  0  0  0
   -0.3366   -1.1335   36.4341 Cl  0  0  0  0  0  0  0  0  0  0  0  0
    0.3706   -3.0569   34.5799 C   0  0  0  0  0  0  0  0  0  0  0  0
    0.0685   -4.1882   33.6940 N   0  0  0  0  0  0  0  0  0  0  0  0
    1.0664   -4.8029   32.7666 C   0  0  0  0  0  0  0  0  0  0  0  0
    1.3082   -4.2343   31.3452 C   0  0  0  0  0  0  0  0  0  0  0  0
    1.1139   -2.7846   31.2973 N   0  0  0  0  0  0  0  0  0  0  0  0
   -0.4848   -2.2745   31.3107 S   0  0  0  0  0  0  0  0  0  0  0  0
   -0.5014   -1.1489   32.2191 O   0  0  0  0  0  0  0  0  0  0  0  0
   -1.3475   -3.4374   31.3992 O   0  0  0  0  0  0  0  0  0  0  0  0
   -0.8218   -1.6752   29.7471 C   0  0  0  0  0  0  0  0  0  0  0  0
   -0.9788   -2.3017   28.5372 C   0  0  0  0  0  0  0  0  0  0  0  0
   -1.4370   -1.3623   27.6025 C   0  0  0  0  0  0  0  0  0  0  0  0
   -1.5653   -0.1096   28.0303 N   0  0  0  0  0  0  0  0  0  0  0  0
   -1.1017   -0.0174   29.5990 S   0  0  0  0  0  0  0  0  0  0  0  0
    0.4729   -6.2214   32.6779 C   0  0  0  0  0  0  0  0  0  0  0  0
   -0.0623   -6.6581   31.5770 N   0  0  0  0  0  0  0  0  0  0  0  0
   -0.9248   -7.7259   31.6694 C   0  0  0  0  0  0  0  0  0  0  0  0
   -1.3883   -8.3168   30.7008 O   0  0  0  0  0  0  0  0  0  0  0  0
   -1.4184   -8.0795   33.0138 C   0  0  0  0  0  0  0  0  0  0  0  0
   -0.7325   -7.6550   34.0726 C   0  0  0  0  0  0  0  0  0  0  0  0
    0.3496   -6.8468   33.9062 N   0  0  0  0  0  0  0  0  0  0  0  0
   -2.8168   -1.4234   36.5339 H   0  0  0  0  0  0  0  0  0  0  0  0
   -8.1057    0.0779   40.4481 H   0  0  0  0  0  0  0  0  0  0  0  0
   -9.7491    2.0703   41.0492 H   0  0  0  0  0  0  0  0  0  0  0  0
   -9.7915    3.8691   39.1209 H   0  0  0  0  0  0  0  0  0  0  0  0
   -6.4528    1.0521   36.0445 H   0  0  0  0  0  0  0  0  0  0  0  0
   -4.6012    1.0891   34.5032 H   0  0  0  0  0  0  0  0  0  0  0  0
   -3.6609   -0.0192   33.4955 H   0  0  0  0  0  0  0  0  0  0  0  0
   -5.8745   -0.6423   32.5283 H   0  0  0  0  0  0  0  0  0  0  0  0
   -6.7277   -0.1504   33.9971 H   0  0  0  0  0  0  0  0  0  0  0  0
   -6.2212   -2.4564   34.7253 H   0  0  0  0  0  0  0  0  0  0  0  0
   -4.8279   -2.5467   33.6384 H   0  0  0  0  0  0  0  0  0  0  0  0
   -1.8924   -4.6779   35.7494 H   0  0  0  0  0  0  0  0  0  0  0  0
    0.7258   -2.2047   33.9985 H   0  0  0  0  0  0  0  0  0  0  0  0
    1.2099   -3.3443   35.2269 H   0  0  0  0  0  0  0  0  0  0  0  0
   -0.8192   -4.0256   33.1851 H   0  0  0  0  0  0  0  0  0  0  0  0
    2.0245   -4.8789   33.2959 H   0  0  0  0  0  0  0  0  0  0  0  0
    2.3523   -4.4335   31.0729 H   0  0  0  0  0  0  0  0  0  0  0  0
    0.7126   -4.6963   30.5520 H   0  0  0  0  0  0  0  0  0  0  0  0
    1.6716   -2.2364   31.9512 H   0  0  0  0  0  0  0  0  0  0  0  0
   -0.8598   -3.3637   28.3675 H   0  0  0  0  0  0  0  0  0  0  0  0
   -1.7098   -1.5936   26.5817 H   0  0  0  0  0  0  0  0  0  0  0  0
   -2.2846   -8.7114   33.0741 H   0  0  0  0  0  0  0  0  0  0  0  0
   -1.0047   -7.9041   35.0929 H   0  0  0  0  0  0  0  0  0  0  0  0
    0.5094   -6.2228   34.7005 H   0  0  0  0  0  0  0  0  0  0  0  0
  1  2  2  0
  2  3  1  0
  3  4  1  0
  4  5  1  0
  5  6  2  0
  6  7  1  0
  7  8  2  0
  8  9  1  0
  9 10  2  0
 10 11  1  0
 11 12  2  0
 12 13  1  0
  8 14  1  0
  4 15  1  0
 15 16  1  0
 16 17  1  0
  2 18  1  0
 18 19  1  0
 18 20  1  0
 18 21  1  0
 21 22  1  0
 22 23  1  0
 23 24  1  0
 24 25  1  0
 25 26  1  0
 26 27  2  0
 26 28  2  0
 26 29  1  0
 29 30  2  0
 30 31  1  0
 31 32  2  0
 32 33  1  0
 23 34  1  0
 34 35  2  0
 35 36  1  0
 36 37  2  0
 36 38  1  0
 38 39  2  0
 39 40  1  0
 17  4  1  0
 33 29  1  0
 40 34  1  0
 14  5  1  0
 13  9  1  0
  3 41  1  0
 10 42  1  0
 11 43  1  0
 12 44  1  0
 14 45  1  0
 15 46  1  0
 15 47  1  0
 16 48  1  0
 16 49  1  0
 17 50  1  0
 17 51  1  0
 19 52  1  0
 21 53  1  0
 21 54  1  0
 22 55  1  0
 23 56  1  0
 24 57  1  0
 24 58  1  0
 25 59  1  0
 30 60  1  0
 31 61  1  0
 38 62  1  0
 39 63  1  0
 40 64  1  0
M  END
>  <Energy>  (747) 
80.498534629410301

>  <compound_id>  (747) 
2847

>  <target_id>  (747) 
1

>  <reference_id>  (747) 
186

>  <inspiration_ids>  (747) 
[186, 121]

>  <energy_score>  (747) 
-86.15305767639433

>  <distance_score>  (747) 
1.406332659571433

>  <path>  (747) 
/opt/xchem-fragalysis-2/maxwin/BulkDock/SCRATCH/505736/C2847-P186/C2847-P186.minimised.mol

>  <scratch_subdir>  (747) 
/opt/xchem-fragalysis-2/maxwin/BulkDock/SCRATCH/505736/C2847-P186

>  <fragmenstein_runtime>  (747) 
10.08492636680603

>  <fragmenstein_outcome>  (747) 
too moved

>  <fragmenstein_mode>  (747) 
expansion

>  <fragmenstein_error>  (747) 


$$$$
C2847-P121
     RDKit          3D

 64 68  0  0  0  0  0  0  0  0999 V2000
   -1.9890   -3.1153   36.6344 O   0  0  0  0  0  0  0  0  0  0  0  0
   -1.6451   -2.3141   35.8457 C   0  0  0  0  0  0  0  0  0  0  0  0
   -2.4922   -1.3965   34.8926 N   0  0  0  0  0  0  0  0  0  0  0  0
   -3.9533   -1.2131   34.7890 C   0  0  0  0  0  0  0  0  0  0  0  0
   -4.6715   -0.8694   36.1472 C   0  0  0  0  0  0  0  0  0  0  0  0
   -4.6463   -1.6430   37.2096 N   0  0  0  0  0  0  0  0  0  0  0  0
   -5.5431   -1.1400   38.1218 N   0  0  0  0  0  0  0  0  0  0  0  0
   -6.0928   -0.0596   37.6065 C   0  0  0  0  0  0  0  0  0  0  0  0
   -7.0722    0.7519   38.2583 C   0  0  0  0  0  0  0  0  0  0  0  0
   -7.6264    0.5167   39.5031 C   0  0  0  0  0  0  0  0  0  0  0  0
   -8.5747    1.5114   39.8808 C   0  0  0  0  0  0  0  0  0  0  0  0
   -8.7125    2.4798   38.9128 C   0  0  0  0  0  0  0  0  0  0  0  0
   -7.7007    2.1853   37.5670 S   0  0  0  0  0  0  0  0  0  0  0  0
   -5.5669    0.1474   36.3615 N   0  0  0  0  0  0  0  0  0  0  0  0
   -4.3733   -0.2995   33.5905 C   0  0  0  0  0  0  0  0  0  0  0  0
   -5.5722   -1.2466   33.3735 C   0  0  0  0  0  0  0  0  0  0  0  0
   -4.7048   -2.3374   34.0216 C   0  0  0  0  0  0  0  0  0  0  0  0
   -0.0900   -2.0225   35.6108 C   0  0  0  0  0  0  0  0  0  0  0  0
    0.8082   -2.4994   37.1800 S   0  0  0  0  0  0  0  0  0  0  0  0
    0.1367   -0.2254   35.4571 Cl  0  0  0  0  0  0  0  0  0  0  0  0
    0.6136   -2.7522   34.4041 C   0  0  0  0  0  0  0  0  0  0  0  0
   -0.0836   -3.9072   33.8351 N   0  0  0  0  0  0  0  0  0  0  0  0
    0.6278   -4.7201   32.7948 C   0  0  0  0  0  0  0  0  0  0  0  0
    0.6338   -4.2628   31.3209 C   0  0  0  0  0  0  0  0  0  0  0  0
    0.5559   -2.7898   31.1939 N   0  0  0  0  0  0  0  0  0  0  0  0
   -0.9978   -2.1268   31.2849 S   0  0  0  0  0  0  0  0  0  0  0  0
   -1.0906   -1.2980   32.4672 O   0  0  0  0  0  0  0  0  0  0  0  0
   -1.9828   -3.1572   31.0467 O   0  0  0  0  0  0  0  0  0  0  0  0
   -1.0810   -1.0358   29.9271 C   0  0  0  0  0  0  0  0  0  0  0  0
   -1.4800   -1.1480   28.6147 C   0  0  0  0  0  0  0  0  0  0  0  0
   -1.3477    0.1056   27.9611 C   0  0  0  0  0  0  0  0  0  0  0  0
   -0.8170    1.0993   28.6653 N   0  0  0  0  0  0  0  0  0  0  0  0
   -0.4870    0.5379   30.1862 S   0  0  0  0  0  0  0  0  0  0  0  0
   -0.0660   -6.0848   32.9562 C   0  0  0  0  0  0  0  0  0  0  0  0
   -0.6544   -6.6707   31.9600 N   0  0  0  0  0  0  0  0  0  0  0  0
   -1.3834   -7.8038   32.2221 C   0  0  0  0  0  0  0  0  0  0  0  0
   -1.9572   -8.4445   31.3490 O   0  0  0  0  0  0  0  0  0  0  0  0
   -1.5821   -8.2350   33.6309 C   0  0  0  0  0  0  0  0  0  0  0  0
   -0.9557   -7.5522   34.5855 C   0  0  0  0  0  0  0  0  0  0  0  0
   -0.1195   -6.5388   34.2585 N   0  0  0  0  0  0  0  0  0  0  0  0
   -1.8724   -0.7563   34.3953 H   0  0  0  0  0  0  0  0  0  0  0  0
   -7.3564   -0.3348   40.1188 H   0  0  0  0  0  0  0  0  0  0  0  0
   -9.1220    1.5161   40.8158 H   0  0  0  0  0  0  0  0  0  0  0  0
   -9.3559    3.3490   38.9328 H   0  0  0  0  0  0  0  0  0  0  0  0
   -5.8427    0.8775   35.7212 H   0  0  0  0  0  0  0  0  0  0  0  0
   -4.6255    0.7412   33.8113 H   0  0  0  0  0  0  0  0  0  0  0  0
   -3.6625   -0.2967   32.7550 H   0  0  0  0  0  0  0  0  0  0  0  0
   -5.8849   -1.4579   32.3520 H   0  0  0  0  0  0  0  0  0  0  0  0
   -6.4701   -0.9841   33.9446 H   0  0  0  0  0  0  0  0  0  0  0  0
   -4.0822   -2.8765   33.2979 H   0  0  0  0  0  0  0  0  0  0  0  0
   -5.2541   -3.0699   34.6169 H   0  0  0  0  0  0  0  0  0  0  0  0
   -0.1066   -3.3983   37.5863 H   0  0  0  0  0  0  0  0  0  0  0  0
    0.8308   -2.0254   33.6196 H   0  0  0  0  0  0  0  0  0  0  0  0
    1.6111   -3.0883   34.7170 H   0  0  0  0  0  0  0  0  0  0  0  0
   -1.0362   -3.6914   33.5312 H   0  0  0  0  0  0  0  0  0  0  0  0
    1.6649   -4.8623   33.1263 H   0  0  0  0  0  0  0  0  0  0  0  0
    1.5858   -4.5748   30.8714 H   0  0  0  0  0  0  0  0  0  0  0  0
   -0.1345   -4.7218   30.6925 H   0  0  0  0  0  0  0  0  0  0  0  0
    1.0623   -2.4533   30.3721 H   0  0  0  0  0  0  0  0  0  0  0  0
   -1.8859   -2.0504   28.1792 H   0  0  0  0  0  0  0  0  0  0  0  0
   -1.6415    0.3310   26.9451 H   0  0  0  0  0  0  0  0  0  0  0  0
   -2.2507   -9.0637   33.8171 H   0  0  0  0  0  0  0  0  0  0  0  0
   -1.0822   -7.7578   35.6402 H   0  0  0  0  0  0  0  0  0  0  0  0
    0.0590   -5.8213   34.9603 H   0  0  0  0  0  0  0  0  0  0  0  0
  1  2  2  0
  2  3  1  0
  3  4  1  0
  4  5  1  0
  5  6  2  0
  6  7  1  0
  7  8  2  0
  8  9  1  0
  9 10  2  0
 10 11  1  0
 11 12  2  0
 12 13  1  0
  8 14  1  0
  4 15  1  0
 15 16  1  0
 16 17  1  0
  2 18  1  0
 18 19  1  0
 18 20  1  0
 18 21  1  0
 21 22  1  0
 22 23  1  0
 23 24  1  0
 24 25  1  0
 25 26  1  0
 26 27  2  0
 26 28  2  0
 26 29  1  0
 29 30  2  0
 30 31  1  0
 31 32  2  0
 32 33  1  0
 23 34  1  0
 34 35  2  0
 35 36  1  0
 36 37  2  0
 36 38  1  0
 38 39  2  0
 39 40  1  0
 17  4  1  0
 33 29  1  0
 40 34  1  0
 14  5  1  0
 13  9  1  0
  3 41  1  0
 10 42  1  0
 11 43  1  0
 12 44  1  0
 14 45  1  0
 15 46  1  0
 15 47  1  0
 16 48  1  0
 16 49  1  0
 17 50  1  0
 17 51  1  0
 19 52  1  0
 21 53  1  0
 21 54  1  0
 22 55  1  0
 23 56  1  0
 24 57  1  0
 24 58  1  0
 25 59  1  0
 30 60  1  0
 31 61  1  0
 38 62  1  0
 39 63  1  0
 40 64  1  0
M  END
>  <Energy>  (748) 
77.418837248324721

>  <compound_id>  (748) 
2847

>  <target_id>  (748) 
1

>  <reference_id>  (748) 
121

>  <inspiration_ids>  (748) 
[186, 121]

>  <energy_score>  (748) 
-89.23275505747742

>  <distance_score>  (748) 
1.4301062920193581

>  <path>  (748) 
/opt/xchem-fragalysis-2/maxwin/BulkDock/SCRATCH/505736/C2847-P121/C2847-P121.minimised.mol

>  <scratch_subdir>  (748) 
/opt/xchem-fragalysis-2/maxwin/BulkDock/SCRATCH/505736/C2847-P121

>  <fragmenstein_runtime>  (748) 
14.542584657669067

>  <fragmenstein_outcome>  (748) 
too moved

>  <fragmenstein_mode>  (748) 
expansion

>  <fragmenstein_error>  (748) 


$$$$
C2657-P186
     RDKit          3D

 50 53  0  0  0  0  0  0  0  0999 V2000
    5.3450   -0.6864   30.6480 O   0  0  0  0  0  0  0  0  0  0  0  0
    4.1784   -0.4814   30.8710 C   0  0  0  0  0  0  0  0  0  0  0  0
    3.7023    0.9087   31.3544 C   0  0  0  0  0  0  0  0  0  0  0  0
    4.3965    2.2094   30.2986 S   0  0  0  0  0  0  0  0  0  0  0  0
    4.2388    1.1137   33.0409 Cl  0  0  0  0  0  0  0  0  0  0  0  0
    3.0439   -1.3647   30.8009 N   0  0  0  0  0  0  0  0  0  0  0  0
    2.4151   -1.3010   29.3995 C   0  0  0  0  0  0  0  0  0  0  0  0
    3.2651   -1.6609   28.2292 C   0  0  0  0  0  0  0  0  0  0  0  0
    3.4406   -1.0022   26.9816 C   0  0  0  0  0  0  0  0  0  0  0  0
    4.2871   -1.7079   26.1474 C   0  0  0  0  0  0  0  0  0  0  0  0
    4.8702   -3.1445   26.8889 S   0  0  0  0  0  0  0  0  0  0  0  0
    4.0055   -2.8023   28.2934 C   0  0  0  0  0  0  0  0  0  0  0  0
    4.0260   -3.5595   29.5513 C   0  0  0  0  0  0  0  0  0  0  0  0
    2.9653   -2.9016   30.5297 C   0  0  0  0  0  0  0  0  0  0  0  0
    1.5864   -3.6863   30.7785 C   0  0  0  0  0  0  0  0  0  0  0  0
    1.8821   -5.1775   31.0107 C   0  0  0  0  0  0  0  0  0  0  0  0
    0.8423   -5.9626   31.7639 C   0  0  0  0  0  0  0  0  0  0  0  0
    0.8462   -5.9349   33.0588 N   0  0  0  0  0  0  0  0  0  0  0  0
   -0.1087   -6.6908   33.6892 C   0  0  0  0  0  0  0  0  0  0  0  0
   -0.9934   -7.4760   33.0693 C   0  0  0  0  0  0  0  0  0  0  0  0
   -0.9616   -7.5056   31.6033 C   0  0  0  0  0  0  0  0  0  0  0  0
   -1.7119   -8.2104   30.9404 O   0  0  0  0  0  0  0  0  0  0  0  0
   -0.0340   -6.6942   31.0223 N   0  0  0  0  0  0  0  0  0  0  0  0
    0.9299   -3.0961   31.9806 N   0  0  0  0  0  0  0  0  0  0  0  0
   -0.7229   -2.7647   31.9475 S   0  0  0  0  0  0  0  0  0  0  0  0
   -1.1022   -2.2946   33.2565 O   0  0  0  0  0  0  0  0  0  0  0  0
   -1.3978   -3.8648   31.2920 O   0  0  0  0  0  0  0  0  0  0  0  0
   -0.9221   -1.4111   30.8571 C   0  0  0  0  0  0  0  0  0  0  0  0
   -1.3114   -1.2724   29.5401 C   0  0  0  0  0  0  0  0  0  0  0  0
   -1.1375    0.0761   29.1306 C   0  0  0  0  0  0  0  0  0  0  0  0
   -0.6590    0.9250   30.0340 N   0  0  0  0  0  0  0  0  0  0  0  0
   -0.4580    0.1109   31.4618 S   0  0  0  0  0  0  0  0  0  0  0  0
    2.6135    0.9888   31.3444 H   0  0  0  0  0  0  0  0  0  0  0  0
    5.6615    1.7671   30.3847 H   0  0  0  0  0  0  0  0  0  0  0  0
    1.4172   -1.7357   29.3334 H   0  0  0  0  0  0  0  0  0  0  0  0
    2.2026   -0.2278   29.2729 H   0  0  0  0  0  0  0  0  0  0  0  0
    2.9851   -0.0615   26.6932 H   0  0  0  0  0  0  0  0  0  0  0  0
    4.5930   -1.4393   25.1434 H   0  0  0  0  0  0  0  0  0  0  0  0
    3.8301   -4.6190   29.3756 H   0  0  0  0  0  0  0  0  0  0  0  0
    5.0249   -3.4795   29.9997 H   0  0  0  0  0  0  0  0  0  0  0  0
    3.4681   -3.1728   31.4780 H   0  0  0  0  0  0  0  0  0  0  0  0
    0.9336   -3.5980   29.9050 H   0  0  0  0  0  0  0  0  0  0  0  0
    2.7980   -5.2687   31.6042 H   0  0  0  0  0  0  0  0  0  0  0  0
    2.0626   -5.6680   30.0478 H   0  0  0  0  0  0  0  0  0  0  0  0
   -0.1189   -6.6338   34.7762 H   0  0  0  0  0  0  0  0  0  0  0  0
   -1.7245   -8.0768   33.5904 H   0  0  0  0  0  0  0  0  0  0  0  0
   -0.0322   -6.6812   30.0141 H   0  0  0  0  0  0  0  0  0  0  0  0
    1.1736   -3.5382   32.8771 H   0  0  0  0  0  0  0  0  0  0  0  0
   -1.6584   -2.0853   28.9132 H   0  0  0  0  0  0  0  0  0  0  0  0
   -1.3414    0.4737   28.1492 H   0  0  0  0  0  0  0  0  0  0  0  0
  1  2  2  0
  2  3  1  0
  3  4  1  0
  3  5  1  0
  2  6  1  0
  6  7  1  0
  7  8  1  0
  8  9  1  0
  9 10  2  0
 10 11  1  0
 11 12  1  0
 12 13  1  0
 13 14  1  0
 14 15  1  0
 15 16  1  0
 16 17  1  0
 17 18  2  0
 18 19  1  0
 19 20  2  0
 20 21  1  0
 21 22  2  0
 21 23  1  0
 15 24  1  0
 24 25  1  0
 25 26  2  0
 25 27  2  0
 25 28  1  0
 28 29  2  0
 29 30  1  0
 30 31  2  0
 31 32  1  0
 14  6  1  0
 23 17  1  0
 32 28  1  0
 12  8  2  0
  3 33  1  0
  4 34  1  0
  7 35  1  0
  7 36  1  0
  9 37  1  0
 10 38  1  0
 13 39  1  0
 13 40  1  0
 14 41  1  0
 15 42  1  0
 16 43  1  0
 16 44  1  0
 19 45  1  0
 20 46  1  0
 23 47  1  0
 24 48  1  0
 29 49  1  0
 30 50  1  0
M  END
>  <Energy>  (749) 
28.442468258871475

>  <compound_id>  (749) 
2657

>  <target_id>  (749) 
1

>  <reference_id>  (749) 
186

>  <inspiration_ids>  (749) 
[186, 128]

>  <energy_score>  (749) 
-71.99633756743901

>  <distance_score>  (749) 
1.240675403298955

>  <path>  (749) 
/opt/xchem-fragalysis-2/maxwin/BulkDock/SCRATCH/505736/C2657-P186/C2657-P186.minimised.mol

>  <scratch_subdir>  (749) 
/opt/xchem-fragalysis-2/maxwin/BulkDock/SCRATCH/505736/C2657-P186

>  <fragmenstein_runtime>  (749) 
10.90327525138855

>  <fragmenstein_outcome>  (749) 
too moved

>  <fragmenstein_mode>  (749) 
expansion

>  <fragmenstein_error>  (749) 


$$$$
C2657-P128
     RDKit          3D

 50 53  0  0  0  0  0  0  0  0999 V2000
    5.4113   -0.6356   30.7357 O   0  0  0  0  0  0  0  0  0  0  0  0
    4.2339   -0.4136   30.8668 C   0  0  0  0  0  0  0  0  0  0  0  0
    3.7379    0.9983   31.2590 C   0  0  0  0  0  0  0  0  0  0  0  0
    4.4382    2.2332   30.1291 S   0  0  0  0  0  0  0  0  0  0  0  0
    4.2534    1.3159   32.9344 Cl  0  0  0  0  0  0  0  0  0  0  0  0
    3.0985   -1.2894   30.7448 N   0  0  0  0  0  0  0  0  0  0  0  0
    2.5728   -1.2690   29.3004 C   0  0  0  0  0  0  0  0  0  0  0  0
    3.5154   -1.6599   28.2159 C   0  0  0  0  0  0  0  0  0  0  0  0
    3.8035   -1.0252   26.9787 C   0  0  0  0  0  0  0  0  0  0  0  0
    4.7029   -1.7608   26.2315 C   0  0  0  0  0  0  0  0  0  0  0  0
    5.2027   -3.1902   27.0433 S   0  0  0  0  0  0  0  0  0  0  0  0
    4.2312   -2.8089   28.3652 C   0  0  0  0  0  0  0  0  0  0  0  0
    4.1341   -3.5397   29.6360 C   0  0  0  0  0  0  0  0  0  0  0  0
    3.0233   -2.8329   30.5210 C   0  0  0  0  0  0  0  0  0  0  0  0
    1.6215   -3.5956   30.7085 C   0  0  0  0  0  0  0  0  0  0  0  0
    1.8898   -5.0717   31.0537 C   0  0  0  0  0  0  0  0  0  0  0  0
    0.8275   -5.8222   31.8137 C   0  0  0  0  0  0  0  0  0  0  0  0
    0.8135   -5.7598   33.1068 N   0  0  0  0  0  0  0  0  0  0  0  0
   -0.1337   -6.5202   33.7457 C   0  0  0  0  0  0  0  0  0  0  0  0
   -0.9976   -7.3380   33.1376 C   0  0  0  0  0  0  0  0  0  0  0  0
   -0.9613   -7.3896   31.6722 C   0  0  0  0  0  0  0  0  0  0  0  0
   -1.7004   -8.1132   31.0164 O   0  0  0  0  0  0  0  0  0  0  0  0
   -0.0353   -6.5812   31.0822 N   0  0  0  0  0  0  0  0  0  0  0  0
    0.8716   -2.9075   31.7962 N   0  0  0  0  0  0  0  0  0  0  0  0
   -0.7721   -2.5836   31.5992 S   0  0  0  0  0  0  0  0  0  0  0  0
   -1.2319   -1.9099   32.7889 O   0  0  0  0  0  0  0  0  0  0  0  0
   -1.4006   -3.7920   31.1126 O   0  0  0  0  0  0  0  0  0  0  0  0
   -0.9262   -1.4398   30.2814 C   0  0  0  0  0  0  0  0  0  0  0  0
   -1.2986   -1.5253   28.9546 C   0  0  0  0  0  0  0  0  0  0  0  0
   -1.1336   -0.2658   28.3146 C   0  0  0  0  0  0  0  0  0  0  0  0
   -0.6486    0.7219   29.0629 N   0  0  0  0  0  0  0  0  0  0  0  0
   -0.4698    0.1641   30.6158 S   0  0  0  0  0  0  0  0  0  0  0  0
    2.6478    1.0657   31.2325 H   0  0  0  0  0  0  0  0  0  0  0  0
    5.7098    1.8358   30.2965 H   0  0  0  0  0  0  0  0  0  0  0  0
    1.5864   -1.7145   29.1664 H   0  0  0  0  0  0  0  0  0  0  0  0
    2.3691   -0.2014   29.1252 H   0  0  0  0  0  0  0  0  0  0  0  0
    3.3719   -0.0934   26.6298 H   0  0  0  0  0  0  0  0  0  0  0  0
    5.0768   -1.5232   25.2446 H   0  0  0  0  0  0  0  0  0  0  0  0
    3.9156   -4.5958   29.4643 H   0  0  0  0  0  0  0  0  0  0  0  0
    5.0988   -3.4810   30.1565 H   0  0  0  0  0  0  0  0  0  0  0  0
    3.4608   -3.0729   31.5091 H   0  0  0  0  0  0  0  0  0  0  0  0
    1.0499   -3.5640   29.7757 H   0  0  0  0  0  0  0  0  0  0  0  0
    2.7913   -5.1430   31.6745 H   0  0  0  0  0  0  0  0  0  0  0  0
    2.1005   -5.6190   30.1273 H   0  0  0  0  0  0  0  0  0  0  0  0
   -0.1493   -6.4469   34.8320 H   0  0  0  0  0  0  0  0  0  0  0  0
   -1.7148   -7.9482   33.6687 H   0  0  0  0  0  0  0  0  0  0  0  0
   -0.0395   -6.5792   30.0746 H   0  0  0  0  0  0  0  0  0  0  0  0
    1.0477   -3.2590   32.7462 H   0  0  0  0  0  0  0  0  0  0  0  0
   -1.6550   -2.4257   28.4733 H   0  0  0  0  0  0  0  0  0  0  0  0
   -1.3550   -0.0485   27.2758 H   0  0  0  0  0  0  0  0  0  0  0  0
  1  2  2  0
  2  3  1  0
  3  4  1  0
  3  5  1  0
  2  6  1  0
  6  7  1  0
  7  8  1  0
  8  9  1  0
  9 10  2  0
 10 11  1  0
 11 12  1  0
 12 13  1  0
 13 14  1  0
 14 15  1  0
 15 16  1  0
 16 17  1  0
 17 18  2  0
 18 19  1  0
 19 20  2  0
 20 21  1  0
 21 22  2  0
 21 23  1  0
 15 24  1  0
 24 25  1  0
 25 26  2  0
 25 27  2  0
 25 28  1  0
 28 29  2  0
 29 30  1  0
 30 31  2  0
 31 32  1  0
 14  6  1  0
 23 17  1  0
 32 28  1  0
 12  8  2  0
  3 33  1  0
  4 34  1  0
  7 35  1  0
  7 36  1  0
  9 37  1  0
 10 38  1  0
 13 39  1  0
 13 40  1  0
 14 41  1  0
 15 42  1  0
 16 43  1  0
 16 44  1  0
 19 45  1  0
 20 46  1  0
 23 47  1  0
 24 48  1  0
 29 49  1  0
 30 50  1  0
M  END
>  <Energy>  (750) 
29.414963112151675

>  <compound_id>  (750) 
2657

>  <target_id>  (750) 
1

>  <reference_id>  (750) 
128

>  <inspiration_ids>  (750) 
[186, 128]

>  <energy_score>  (750) 
-71.02384271415775

>  <distance_score>  (750) 
1.1692806031823175

>  <path>  (750) 
/opt/xchem-fragalysis-2/maxwin/BulkDock/SCRATCH/505736/C2657-P128/C2657-P128.minimised.mol

>  <scratch_subdir>  (750) 
/opt/xchem-fragalysis-2/maxwin/BulkDock/SCRATCH/505736/C2657-P128

>  <fragmenstein_runtime>  (750) 
8.719083070755005

>  <fragmenstein_outcome>  (750) 
too moved

>  <fragmenstein_mode>  (750) 
expansion

>  <fragmenstein_error>  (750) 


$$$$
C2852-P186
     RDKit          3D

 34 35  0  0  0  0  0  0  0  0999 V2000
    0.7571    0.4550   28.1405 C   0  0  0  0  0  0  0  0  0  0  0  0
   -0.2666   -0.0369   29.0879 C   0  0  0  0  0  0  0  0  0  0  0  0
   -0.5108   -1.4106   29.3794 C   0  0  0  0  0  0  0  0  0  0  0  0
   -1.0320   -1.4995   30.6543 C   0  0  0  0  0  0  0  0  0  0  0  0
   -1.0340   -2.7402   31.8852 S   0  0  0  0  0  0  0  0  0  0  0  0
   -1.0447   -2.0682   33.1634 O   0  0  0  0  0  0  0  0  0  0  0  0
   -2.0264   -3.7149   31.5008 O   0  0  0  0  0  0  0  0  0  0  0  0
    0.5072   -3.4384   31.7719 N   0  0  0  0  0  0  0  0  0  0  0  0
    0.8301   -4.1793   30.5371 C   0  0  0  0  0  0  0  0  0  0  0  0
    1.5895   -5.4337   30.9089 C   0  0  0  0  0  0  0  0  0  0  0  0
    0.6676   -6.3235   31.7051 C   0  0  0  0  0  0  0  0  0  0  0  0
   -0.1057   -7.1234   31.0448 N   0  0  0  0  0  0  0  0  0  0  0  0
   -1.0267   -7.8659   31.7448 C   0  0  0  0  0  0  0  0  0  0  0  0
   -1.7855   -8.6508   31.1913 O   0  0  0  0  0  0  0  0  0  0  0  0
   -1.1306   -7.6721   33.2132 C   0  0  0  0  0  0  0  0  0  0  0  0
   -0.2840   -6.8370   33.8262 C   0  0  0  0  0  0  0  0  0  0  0  0
   -0.3488   -6.5563   35.2960 C   0  0  0  0  0  0  0  0  0  0  0  0
    0.6683   -6.1962   33.0727 N   0  0  0  0  0  0  0  0  0  0  0  0
   -1.6064    0.0250   31.1074 S   0  0  0  0  0  0  0  0  0  0  0  0
   -0.9100    0.8430   29.8506 N   0  0  0  0  0  0  0  0  0  0  0  0
    0.8510   -0.2269   27.2939 H   0  0  0  0  0  0  0  0  0  0  0  0
    0.5262    1.4598   27.7814 H   0  0  0  0  0  0  0  0  0  0  0  0
    1.7321    0.4991   28.6381 H   0  0  0  0  0  0  0  0  0  0  0  0
   -0.0854   -2.2344   28.8253 H   0  0  0  0  0  0  0  0  0  0  0  0
    1.2179   -2.7717   32.0818 H   0  0  0  0  0  0  0  0  0  0  0  0
   -0.0717   -4.4425   29.9750 H   0  0  0  0  0  0  0  0  0  0  0  0
    1.4644   -3.5505   29.9047 H   0  0  0  0  0  0  0  0  0  0  0  0
    1.9091   -5.9516   29.9996 H   0  0  0  0  0  0  0  0  0  0  0  0
    2.4768   -5.1965   31.5052 H   0  0  0  0  0  0  0  0  0  0  0  0
   -1.9096   -8.2195   33.7209 H   0  0  0  0  0  0  0  0  0  0  0  0
   -0.5602   -5.4967   35.4730 H   0  0  0  0  0  0  0  0  0  0  0  0
   -1.1309   -7.1427   35.7886 H   0  0  0  0  0  0  0  0  0  0  0  0
    0.6047   -6.8056   35.7729 H   0  0  0  0  0  0  0  0  0  0  0  0
    1.0766   -5.3598   33.4832 H   0  0  0  0  0  0  0  0  0  0  0  0
  1  2  1  0
  2  3  1  0
  3  4  2  0
  4  5  1  0
  5  6  2  0
  5  7  2  0
  5  8  1  0
  8  9  1  0
  9 10  1  0
 10 11  1  0
 11 12  2  0
 12 13  1  0
 13 14  2  0
 13 15  1  0
 15 16  2  0
 16 17  1  0
 16 18  1  0
  4 19  1  0
 19 20  1  0
 20  2  2  0
 18 11  1  0
  1 21  1  0
  1 22  1  0
  1 23  1  0
  3 24  1  0
  8 25  1  0
  9 26  1  0
  9 27  1  0
 10 28  1  0
 10 29  1  0
 15 30  1  0
 17 31  1  0
 17 32  1  0
 17 33  1  0
 18 34  1  0
M  END
>  <Energy>  (751) 
-79.876094082845071

>  <compound_id>  (751) 
2852

>  <target_id>  (751) 
1

>  <reference_id>  (751) 
186

>  <inspiration_ids>  (751) 
[186, 135]

>  <energy_score>  (751) 
-42.164738034471576

>  <distance_score>  (751) 
0.9451395050035446

>  <path>  (751) 
/opt/xchem-fragalysis-2/maxwin/BulkDock/SCRATCH/505736/C2852-P186/C2852-P186.minimised.mol

>  <scratch_subdir>  (751) 
/opt/xchem-fragalysis-2/maxwin/BulkDock/SCRATCH/505736/C2852-P186

>  <fragmenstein_runtime>  (751) 
1.4447739124298096

>  <fragmenstein_outcome>  (751) 
acceptable

>  <fragmenstein_mode>  (751) 
expansion

>  <fragmenstein_error>  (751) 


$$$$
C2852-P135
     RDKit          3D

 34 35  0  0  0  0  0  0  0  0999 V2000
   -0.4596    0.4176   27.6433 C   0  0  0  0  0  0  0  0  0  0  0  0
   -0.7378    0.0038   29.0260 C   0  0  0  0  0  0  0  0  0  0  0  0
   -1.1520   -1.2964   29.4493 C   0  0  0  0  0  0  0  0  0  0  0  0
   -1.0693   -1.3749   30.8246 C   0  0  0  0  0  0  0  0  0  0  0  0
   -1.0530   -2.6839   31.9828 S   0  0  0  0  0  0  0  0  0  0  0  0
   -1.0647   -2.0983   33.3018 O   0  0  0  0  0  0  0  0  0  0  0  0
   -2.0429   -3.6411   31.5461 O   0  0  0  0  0  0  0  0  0  0  0  0
    0.4908   -3.3639   31.7909 N   0  0  0  0  0  0  0  0  0  0  0  0
    0.7598   -4.0502   30.5078 C   0  0  0  0  0  0  0  0  0  0  0  0
    1.5275   -5.3266   30.8013 C   0  0  0  0  0  0  0  0  0  0  0  0
    0.6463   -6.2338   31.6309 C   0  0  0  0  0  0  0  0  0  0  0  0
   -0.1123   -7.0719   31.0008 N   0  0  0  0  0  0  0  0  0  0  0  0
   -0.9894   -7.8358   31.7363 C   0  0  0  0  0  0  0  0  0  0  0  0
   -1.7119   -8.6757   31.2167 O   0  0  0  0  0  0  0  0  0  0  0  0
   -1.0887   -7.6073   33.1995 C   0  0  0  0  0  0  0  0  0  0  0  0
   -0.2598   -6.7312   33.7784 C   0  0  0  0  0  0  0  0  0  0  0  0
   -0.3205   -6.4064   35.2397 C   0  0  0  0  0  0  0  0  0  0  0  0
    0.6666   -6.0836   32.9969 N   0  0  0  0  0  0  0  0  0  0  0  0
   -0.7098    0.1638   31.4451 S   0  0  0  0  0  0  0  0  0  0  0  0
   -0.4980    0.8907   29.9873 N   0  0  0  0  0  0  0  0  0  0  0  0
   -1.2287    0.0264   26.9719 H   0  0  0  0  0  0  0  0  0  0  0  0
   -0.4545    1.5075   27.5333 H   0  0  0  0  0  0  0  0  0  0  0  0
    0.5206    0.0422   27.3390 H   0  0  0  0  0  0  0  0  0  0  0  0
   -1.3625   -2.1313   28.7906 H   0  0  0  0  0  0  0  0  0  0  0  0
    1.2068   -2.6902   32.0739 H   0  0  0  0  0  0  0  0  0  0  0  0
   -0.1650   -4.2927   29.9749 H   0  0  0  0  0  0  0  0  0  0  0  0
    1.3559   -3.3882   29.8713 H   0  0  0  0  0  0  0  0  0  0  0  0
    1.7912   -5.8267   29.8637 H   0  0  0  0  0  0  0  0  0  0  0  0
    2.4518   -5.1167   31.3509 H   0  0  0  0  0  0  0  0  0  0  0  0
   -1.8468   -8.1645   33.7294 H   0  0  0  0  0  0  0  0  0  0  0  0
   -0.5465   -5.3451   35.3855 H   0  0  0  0  0  0  0  0  0  0  0  0
   -1.0910   -6.9885   35.7553 H   0  0  0  0  0  0  0  0  0  0  0  0
    0.6397   -6.6264   35.7175 H   0  0  0  0  0  0  0  0  0  0  0  0
    1.0395   -5.2162   33.3776 H   0  0  0  0  0  0  0  0  0  0  0  0
  1  2  1  0
  2  3  1  0
  3  4  2  0
  4  5  1  0
  5  6  2  0
  5  7  2  0
  5  8  1  0
  8  9  1  0
  9 10  1  0
 10 11  1  0
 11 12  2  0
 12 13  1  0
 13 14  2  0
 13 15  1  0
 15 16  2  0
 16 17  1  0
 16 18  1  0
  4 19  1  0
 19 20  1  0
 20  2  2  0
 18 11  1  0
  1 21  1  0
  1 22  1  0
  1 23  1  0
  3 24  1  0
  8 25  1  0
  9 26  1  0
  9 27  1  0
 10 28  1  0
 10 29  1  0
 15 30  1  0
 17 31  1  0
 17 32  1  0
 17 33  1  0
 18 34  1  0
M  END
>  <Energy>  (752) 
-86.563275756498129

>  <compound_id>  (752) 
2852

>  <target_id>  (752) 
1

>  <reference_id>  (752) 
135

>  <inspiration_ids>  (752) 
[186, 135]

>  <energy_score>  (752) 
-48.85191970812315

>  <distance_score>  (752) 
1.186131697077112

>  <path>  (752) 
/opt/xchem-fragalysis-2/maxwin/BulkDock/SCRATCH/505736/C2852-P135/C2852-P135.minimised.mol

>  <scratch_subdir>  (752) 
/opt/xchem-fragalysis-2/maxwin/BulkDock/SCRATCH/505736/C2852-P135

>  <fragmenstein_runtime>  (752) 
1.4035677909851074

>  <fragmenstein_outcome>  (752) 
too moved

>  <fragmenstein_mode>  (752) 
expansion

>  <fragmenstein_error>  (752) 


$$$$
C2852-P186
     RDKit          2D

  0  0  0  0  0  0  0  0  0  0999 V2000
M  END
>  <compound_id>  (753) 
2852

>  <target_id>  (753) 
1

>  <reference_id>  (753) 
186

>  <inspiration_ids>  (753) 
[186, 136]

>  <energy_score>  (753) 
nan

>  <distance_score>  (753) 
nan

>  <path>  (753) 
/opt/xchem-fragalysis-2/maxwin/BulkDock/SCRATCH/505736/C2852-P186/C2852-P186.minimised.mol

>  <scratch_subdir>  (753) 
/opt/xchem-fragalysis-2/maxwin/BulkDock/SCRATCH/505736/C2852-P186

>  <fragmenstein_runtime>  (753) 
0.31770992279052734

>  <fragmenstein_outcome>  (753) 
too distant

>  <fragmenstein_mode>  (753) 
expansion

>  <fragmenstein_error>  (753) 
DistanceError: hit0+hit1

$$$$
C2851-P186
     RDKit          3D

 31 32  0  0  0  0  0  0  0  0999 V2000
   -0.1620   -6.2633   35.1662 C   0  0  0  0  0  0  0  0  0  0  0  0
   -0.1617   -6.6477   33.7269 C   0  0  0  0  0  0  0  0  0  0  0  0
   -1.0309   -7.5157   33.1958 C   0  0  0  0  0  0  0  0  0  0  0  0
   -0.9895   -7.7637   31.7302 C   0  0  0  0  0  0  0  0  0  0  0  0
   -1.7678   -8.5718   31.2367 O   0  0  0  0  0  0  0  0  0  0  0  0
   -0.1017   -7.0450   30.9611 N   0  0  0  0  0  0  0  0  0  0  0  0
    0.7066   -6.2271   31.5547 C   0  0  0  0  0  0  0  0  0  0  0  0
    1.6027   -5.3634   30.7004 C   0  0  0  0  0  0  0  0  0  0  0  0
    0.8511   -4.0893   30.3763 C   0  0  0  0  0  0  0  0  0  0  0  0
    0.6264   -3.3238   31.6285 N   0  0  0  0  0  0  0  0  0  0  0  0
   -0.9308   -2.6790   31.8427 S   0  0  0  0  0  0  0  0  0  0  0  0
   -0.8774   -1.8702   33.0365 O   0  0  0  0  0  0  0  0  0  0  0  0
   -1.8988   -3.7367   31.6520 O   0  0  0  0  0  0  0  0  0  0  0  0
   -1.1332   -1.6104   30.4749 C   0  0  0  0  0  0  0  0  0  0  0  0
   -1.3158   -1.8430   29.1295 C   0  0  0  0  0  0  0  0  0  0  0  0
   -1.2076   -0.6277   28.4204 C   0  0  0  0  0  0  0  0  0  0  0  0
   -1.0428    0.4834   29.1306 N   0  0  0  0  0  0  0  0  0  0  0  0
   -0.9477    0.0577   30.7300 S   0  0  0  0  0  0  0  0  0  0  0  0
    0.7649   -6.0509   32.9115 N   0  0  0  0  0  0  0  0  0  0  0  0
   -0.3415   -5.1887   35.2767 H   0  0  0  0  0  0  0  0  0  0  0  0
   -0.9398   -6.7902   35.7294 H   0  0  0  0  0  0  0  0  0  0  0  0
    0.8020   -6.5032   35.6269 H   0  0  0  0  0  0  0  0  0  0  0  0
   -1.7849   -8.0417   33.7625 H   0  0  0  0  0  0  0  0  0  0  0  0
    1.8545   -5.8958   29.7776 H   0  0  0  0  0  0  0  0  0  0  0  0
    2.5296   -5.1460   31.2409 H   0  0  0  0  0  0  0  0  0  0  0  0
   -0.0917   -4.3491   29.8861 H   0  0  0  0  0  0  0  0  0  0  0  0
    1.4352   -3.4694   29.6882 H   0  0  0  0  0  0  0  0  0  0  0  0
    1.3326   -2.6090   31.8216 H   0  0  0  0  0  0  0  0  0  0  0  0
   -1.4605   -2.8169   28.6801 H   0  0  0  0  0  0  0  0  0  0  0  0
   -1.2422   -0.5488   27.3492 H   0  0  0  0  0  0  0  0  0  0  0  0
    1.1977   -5.2018   33.2684 H   0  0  0  0  0  0  0  0  0  0  0  0
  1  2  1  0
  2  3  2  0
  3  4  1  0
  4  5  2  0
  4  6  1  0
  6  7  2  0
  7  8  1  0
  8  9  1  0
  9 10  1  0
 10 11  1  0
 11 12  2  0
 11 13  2  0
 11 14  1  0
 14 15  2  0
 15 16  1  0
 16 17  2  0
 17 18  1  0
  7 19  1  0
 19  2  1  0
 18 14  1  0
  1 20  1  0
  1 21  1  0
  1 22  1  0
  3 23  1  0
  8 24  1  0
  8 25  1  0
  9 26  1  0
  9 27  1  0
 10 28  1  0
 15 29  1  0
 16 30  1  0
 19 31  1  0
M  END
>  <Energy>  (754) 
-90.190761771120094

>  <compound_id>  (754) 
2851

>  <target_id>  (754) 
1

>  <reference_id>  (754) 
186

>  <inspiration_ids>  (754) 
[186, 140]

>  <energy_score>  (754) 
-52.709834773794405

>  <distance_score>  (754) 
0.5994581438934122

>  <path>  (754) 
/opt/xchem-fragalysis-2/maxwin/BulkDock/SCRATCH/505736/C2851-P186/C2851-P186.minimised.mol

>  <scratch_subdir>  (754) 
/opt/xchem-fragalysis-2/maxwin/BulkDock/SCRATCH/505736/C2851-P186

>  <fragmenstein_runtime>  (754) 
1.3109867572784424

>  <fragmenstein_outcome>  (754) 
acceptable

>  <fragmenstein_mode>  (754) 
expansion

>  <fragmenstein_error>  (754) 


$$$$
C2851-P140
     RDKit          3D

 31 32  0  0  0  0  0  0  0  0999 V2000
   -0.1136   -6.0253   35.1218 C   0  0  0  0  0  0  0  0  0  0  0  0
   -0.1520   -6.4076   33.6825 C   0  0  0  0  0  0  0  0  0  0  0  0
   -1.0435   -7.2709   33.1828 C   0  0  0  0  0  0  0  0  0  0  0  0
   -1.0326   -7.5438   31.7235 C   0  0  0  0  0  0  0  0  0  0  0  0
   -1.8220   -8.3546   31.2574 O   0  0  0  0  0  0  0  0  0  0  0  0
   -0.1596   -6.8420   30.9232 N   0  0  0  0  0  0  0  0  0  0  0  0
    0.6644   -6.0183   31.4840 C   0  0  0  0  0  0  0  0  0  0  0  0
    1.5434   -5.1838   30.5838 C   0  0  0  0  0  0  0  0  0  0  0  0
    0.7775   -3.9333   30.1924 C   0  0  0  0  0  0  0  0  0  0  0  0
    0.5867   -3.0898   31.3935 N   0  0  0  0  0  0  0  0  0  0  0  0
   -0.9375   -2.3675   31.5755 S   0  0  0  0  0  0  0  0  0  0  0  0
   -0.8491   -1.5412   32.7566 O   0  0  0  0  0  0  0  0  0  0  0  0
   -1.9521   -3.3857   31.4188 O   0  0  0  0  0  0  0  0  0  0  0  0
   -1.1044   -1.3034   30.1879 C   0  0  0  0  0  0  0  0  0  0  0  0
   -1.4166   -1.5029   28.8582 C   0  0  0  0  0  0  0  0  0  0  0  0
   -1.3253   -0.2808   28.1384 C   0  0  0  0  0  0  0  0  0  0  0  0
   -0.9515    0.7914   28.8323 N   0  0  0  0  0  0  0  0  0  0  0  0
   -0.7294    0.3398   30.4117 S   0  0  0  0  0  0  0  0  0  0  0  0
    0.7558   -5.8200   32.8368 N   0  0  0  0  0  0  0  0  0  0  0  0
   -0.2852   -4.9500   35.2379 H   0  0  0  0  0  0  0  0  0  0  0  0
   -0.8777   -6.5494   35.7058 H   0  0  0  0  0  0  0  0  0  0  0  0
    0.8616   -6.2694   35.5561 H   0  0  0  0  0  0  0  0  0  0  0  0
   -1.7901   -7.7793   33.7758 H   0  0  0  0  0  0  0  0  0  0  0  0
    1.7938   -5.7607   29.6875 H   0  0  0  0  0  0  0  0  0  0  0  0
    2.4751   -4.9356   31.1036 H   0  0  0  0  0  0  0  0  0  0  0  0
   -0.1785   -4.2134   29.7392 H   0  0  0  0  0  0  0  0  0  0  0  0
    1.3469   -3.3605   29.4528 H   0  0  0  0  0  0  0  0  0  0  0  0
    1.3252   -2.4032   31.5604 H   0  0  0  0  0  0  0  0  0  0  0  0
   -1.6933   -2.4552   28.4293 H   0  0  0  0  0  0  0  0  0  0  0  0
   -1.5317   -0.1505   27.0821 H   0  0  0  0  0  0  0  0  0  0  0  0
    1.1950   -4.9676   33.1743 H   0  0  0  0  0  0  0  0  0  0  0  0
  1  2  1  0
  2  3  2  0
  3  4  1  0
  4  5  2  0
  4  6  1  0
  6  7  2  0
  7  8  1  0
  8  9  1  0
  9 10  1  0
 10 11  1  0
 11 12  2  0
 11 13  2  0
 11 14  1  0
 14 15  2  0
 15 16  1  0
 16 17  2  0
 17 18  1  0
  7 19  1  0
 19  2  1  0
 18 14  1  0
  1 20  1  0
  1 21  1  0
  1 22  1  0
  3 23  1  0
  8 24  1  0
  8 25  1  0
  9 26  1  0
  9 27  1  0
 10 28  1  0
 15 29  1  0
 16 30  1  0
 19 31  1  0
M  END
>  <Energy>  (755) 
-92.165358281734143

>  <compound_id>  (755) 
2851

>  <target_id>  (755) 
1

>  <reference_id>  (755) 
140

>  <inspiration_ids>  (755) 
[186, 140]

>  <energy_score>  (755) 
-54.6844312844087

>  <distance_score>  (755) 
0.5809365361212593

>  <path>  (755) 
/opt/xchem-fragalysis-2/maxwin/BulkDock/SCRATCH/505736/C2851-P140/C2851-P140.minimised.mol

>  <scratch_subdir>  (755) 
/opt/xchem-fragalysis-2/maxwin/BulkDock/SCRATCH/505736/C2851-P140

>  <fragmenstein_runtime>  (755) 
1.336256742477417

>  <fragmenstein_outcome>  (755) 
acceptable

>  <fragmenstein_mode>  (755) 
expansion

>  <fragmenstein_error>  (755) 


$$$$
C2851-P186
     RDKit          2D

  0  0  0  0  0  0  0  0  0  0999 V2000
M  END
>  <compound_id>  (756) 
2851

>  <target_id>  (756) 
1

>  <reference_id>  (756) 
186

>  <inspiration_ids>  (756) 
[186, 145]

>  <energy_score>  (756) 
nan

>  <distance_score>  (756) 
nan

>  <path>  (756) 
/opt/xchem-fragalysis-2/maxwin/BulkDock/SCRATCH/505736/C2851-P186/C2851-P186.minimised.mol

>  <scratch_subdir>  (756) 
/opt/xchem-fragalysis-2/maxwin/BulkDock/SCRATCH/505736/C2851-P186

>  <fragmenstein_runtime>  (756) 
0.40413665771484375

>  <fragmenstein_outcome>  (756) 
too distant

>  <fragmenstein_mode>  (756) 
expansion

>  <fragmenstein_error>  (756) 
DistanceError: hit0+hit1

$$$$
C2851-P186
     RDKit          2D

  0  0  0  0  0  0  0  0  0  0999 V2000
M  END
>  <compound_id>  (757) 
2851

>  <target_id>  (757) 
1

>  <reference_id>  (757) 
186

>  <inspiration_ids>  (757) 
[186, 149]

>  <energy_score>  (757) 
nan

>  <distance_score>  (757) 
nan

>  <path>  (757) 
/opt/xchem-fragalysis-2/maxwin/BulkDock/SCRATCH/505736/C2851-P186/C2851-P186.minimised.mol

>  <scratch_subdir>  (757) 
/opt/xchem-fragalysis-2/maxwin/BulkDock/SCRATCH/505736/C2851-P186

>  <fragmenstein_runtime>  (757) 
0.3748617172241211

>  <fragmenstein_outcome>  (757) 
too distant

>  <fragmenstein_mode>  (757) 
expansion

>  <fragmenstein_error>  (757) 
DistanceError: hit0+hit1

$$$$
C2855-P186
     RDKit          3D

 43 46  0  0  0  0  0  0  0  0999 V2000
   -1.3147   -8.1078   32.7262 N   0  0  0  0  0  0  0  0  0  0  0  0
   -0.9960   -7.1982   33.8069 C   0  0  0  0  0  0  0  0  0  0  0  0
   -0.0424   -7.7239   34.8684 C   0  0  0  0  0  0  0  0  0  0  0  0
    1.3965   -7.5196   34.4696 C   0  0  0  0  0  0  0  0  0  0  0  0
    2.3301   -8.2413   34.8064 O   0  0  0  0  0  0  0  0  0  0  0  0
    1.6472   -6.4298   33.6912 N   0  0  0  0  0  0  0  0  0  0  0  0
    0.6572   -5.4045   33.6748 C   0  0  0  0  0  0  0  0  0  0  0  0
    0.4774   -4.8044   35.1635 C   0  0  0  0  0  0  0  0  0  0  0  0
    0.4475   -3.3186   35.2325 C   0  0  0  0  0  0  0  0  0  0  0  0
    0.5919   -2.4120   36.3034 C   0  0  0  0  0  0  0  0  0  0  0  0
    0.3569   -1.1510   35.7922 C   0  0  0  0  0  0  0  0  0  0  0  0
    0.0651   -1.2715   34.4547 N   0  0  0  0  0  0  0  0  0  0  0  0
    0.1856   -2.5854   34.1053 C   0  0  0  0  0  0  0  0  0  0  0  0
   -0.0296   -3.2529   32.8035 C   0  0  0  0  0  0  0  0  0  0  0  0
    0.0238   -2.3416   31.7106 N   0  0  0  0  0  0  0  0  0  0  0  0
   -1.5120   -1.7827   31.3318 S   0  0  0  0  0  0  0  0  0  0  0  0
   -1.7785   -0.6772   32.2226 O   0  0  0  0  0  0  0  0  0  0  0  0
   -2.3983   -2.9169   31.1839 O   0  0  0  0  0  0  0  0  0  0  0  0
   -1.2206   -1.1831   29.7441 C   0  0  0  0  0  0  0  0  0  0  0  0
   -1.1004   -1.8292   28.5385 C   0  0  0  0  0  0  0  0  0  0  0  0
   -0.3424   -1.0179   27.6734 C   0  0  0  0  0  0  0  0  0  0  0  0
   -0.0182    0.2000   28.0996 N   0  0  0  0  0  0  0  0  0  0  0  0
   -0.6387    0.4018   29.6154 S   0  0  0  0  0  0  0  0  0  0  0  0
    1.0315   -4.3305   32.6422 C   0  0  0  0  0  0  0  0  0  0  0  0
   -0.4975   -6.0829   33.0703 N   0  0  0  0  0  0  0  0  0  0  0  0
   -2.1172   -7.7337   32.2236 H   0  0  0  0  0  0  0  0  0  0  0  0
   -1.6408   -8.9797   33.1490 H   0  0  0  0  0  0  0  0  0  0  0  0
   -1.9249   -6.9324   34.3162 H   0  0  0  0  0  0  0  0  0  0  0  0
   -0.1937   -7.2160   35.8268 H   0  0  0  0  0  0  0  0  0  0  0  0
   -0.2343   -8.7584   35.0948 H   0  0  0  0  0  0  0  0  0  0  0  0
    2.6276   -6.1844   33.6252 H   0  0  0  0  0  0  0  0  0  0  0  0
   -0.4710   -5.1472   35.5939 H   0  0  0  0  0  0  0  0  0  0  0  0
    1.2828   -5.1610   35.8184 H   0  0  0  0  0  0  0  0  0  0  0  0
    0.8039   -2.6426   37.3400 H   0  0  0  0  0  0  0  0  0  0  0  0
    0.3348   -0.1823   36.2736 H   0  0  0  0  0  0  0  0  0  0  0  0
   -0.2510   -0.5208   33.8492 H   0  0  0  0  0  0  0  0  0  0  0  0
   -1.0126   -3.7331   32.8512 H   0  0  0  0  0  0  0  0  0  0  0  0
    0.7273   -1.6089   31.7845 H   0  0  0  0  0  0  0  0  0  0  0  0
   -1.3700   -2.8613   28.3610 H   0  0  0  0  0  0  0  0  0  0  0  0
    0.0254   -1.3321   26.7104 H   0  0  0  0  0  0  0  0  0  0  0  0
    1.0513   -4.7301   31.6181 H   0  0  0  0  0  0  0  0  0  0  0  0
    2.0426   -3.9402   32.8281 H   0  0  0  0  0  0  0  0  0  0  0  0
   -0.1741   -6.4904   32.1917 H   0  0  0  0  0  0  0  0  0  0  0  0
  1  2  1  0
  2  3  1  0
  3  4  1  0
  4  5  2  0
  4  6  1  0
  6  7  1  0
  7  8  1  0
  8  9  1  0
  9 10  1  0
 10 11  2  0
 11 12  1  0
 12 13  1  0
 13 14  1  0
 14 15  1  0
 15 16  1  0
 16 17  2  0
 16 18  2  0
 16 19  1  0
 19 20  2  0
 20 21  1  0
 21 22  2  0
 22 23  1  0
 14 24  1  0
  7 25  1  0
 25  2  1  0
 24  7  1  0
 13  9  2  0
 23 19  1  0
  1 26  1  0
  1 27  1  0
  2 28  1  0
  3 29  1  0
  3 30  1  0
  6 31  1  0
  8 32  1  0
  8 33  1  0
 10 34  1  0
 11 35  1  0
 12 36  1  0
 14 37  1  0
 15 38  1  0
 20 39  1  0
 21 40  1  0
 24 41  1  0
 24 42  1  0
 25 43  1  0
M  END
>  <Energy>  (758) 
-171.70570830144075

>  <compound_id>  (758) 
2855

>  <target_id>  (758) 
1

>  <reference_id>  (758) 
186

>  <inspiration_ids>  (758) 
[186, 156]

>  <energy_score>  (758) 
-72.03910025822933

>  <distance_score>  (758) 
1.7782291197960662

>  <path>  (758) 
/opt/xchem-fragalysis-2/maxwin/BulkDock/SCRATCH/505736/C2855-P186/C2855-P186.minimised.mol

>  <scratch_subdir>  (758) 
/opt/xchem-fragalysis-2/maxwin/BulkDock/SCRATCH/505736/C2855-P186

>  <fragmenstein_runtime>  (758) 
6.356574296951294

>  <fragmenstein_outcome>  (758) 
too moved

>  <fragmenstein_mode>  (758) 
expansion

>  <fragmenstein_error>  (758) 


$$$$
C2855-P156
     RDKit          3D

 43 46  0  0  0  0  0  0  0  0999 V2000
   -1.4225   -8.1258   32.6782 N   0  0  0  0  0  0  0  0  0  0  0  0
   -1.0528   -7.1312   33.6653 C   0  0  0  0  0  0  0  0  0  0  0  0
   -0.1722   -7.6190   34.8052 C   0  0  0  0  0  0  0  0  0  0  0  0
    1.2890   -7.5114   34.4525 C   0  0  0  0  0  0  0  0  0  0  0  0
    2.1756   -8.2253   34.9112 O   0  0  0  0  0  0  0  0  0  0  0  0
    1.6293   -6.5338   33.5622 N   0  0  0  0  0  0  0  0  0  0  0  0
    0.7092   -5.4576   33.3934 C   0  0  0  0  0  0  0  0  0  0  0  0
    0.5179   -4.7105   34.8138 C   0  0  0  0  0  0  0  0  0  0  0  0
    0.8675   -3.2645   34.7819 C   0  0  0  0  0  0  0  0  0  0  0  0
    1.2870   -2.3546   35.7725 C   0  0  0  0  0  0  0  0  0  0  0  0
    1.3562   -1.1154   35.1674 C   0  0  0  0  0  0  0  0  0  0  0  0
    0.9799   -1.2501   33.8515 N   0  0  0  0  0  0  0  0  0  0  0  0
    0.7425   -2.5703   33.6060 C   0  0  0  0  0  0  0  0  0  0  0  0
    0.3158   -3.2783   32.3760 C   0  0  0  0  0  0  0  0  0  0  0  0
    0.3410   -2.4468   31.2021 N   0  0  0  0  0  0  0  0  0  0  0  0
   -1.1990   -1.7842   31.0003 S   0  0  0  0  0  0  0  0  0  0  0  0
   -1.3854   -0.8284   32.0705 O   0  0  0  0  0  0  0  0  0  0  0  0
   -2.1182   -2.8847   30.8026 O   0  0  0  0  0  0  0  0  0  0  0  0
   -1.1515   -0.8883   29.5236 C   0  0  0  0  0  0  0  0  0  0  0  0
   -1.6072   -1.0978   28.2458 C   0  0  0  0  0  0  0  0  0  0  0  0
   -1.3352    0.0420   27.4476 C   0  0  0  0  0  0  0  0  0  0  0  0
   -0.6363    1.0242   28.0095 N   0  0  0  0  0  0  0  0  0  0  0  0
   -0.3368    0.6026   29.5802 S   0  0  0  0  0  0  0  0  0  0  0  0
    1.1854   -4.5182   32.2518 C   0  0  0  0  0  0  0  0  0  0  0  0
   -0.4725   -6.1251   32.8314 N   0  0  0  0  0  0  0  0  0  0  0  0
   -2.1932   -7.7441   32.1312 H   0  0  0  0  0  0  0  0  0  0  0  0
   -1.8193   -8.9288   33.1702 H   0  0  0  0  0  0  0  0  0  0  0  0
   -1.9643   -6.7492   34.1239 H   0  0  0  0  0  0  0  0  0  0  0  0
   -0.3368   -7.0142   35.7046 H   0  0  0  0  0  0  0  0  0  0  0  0
   -0.4247   -8.6281   35.1071 H   0  0  0  0  0  0  0  0  0  0  0  0
    2.6227   -6.3380   33.5396 H   0  0  0  0  0  0  0  0  0  0  0  0
   -0.5335   -4.7797   35.1230 H   0  0  0  0  0  0  0  0  0  0  0  0
    1.1184   -5.1846   35.5998 H   0  0  0  0  0  0  0  0  0  0  0  0
    1.4817   -2.5583   36.8180 H   0  0  0  0  0  0  0  0  0  0  0  0
    1.6015   -0.1416   35.5704 H   0  0  0  0  0  0  0  0  0  0  0  0
    0.8329   -0.4838   33.2061 H   0  0  0  0  0  0  0  0  0  0  0  0
   -0.7102   -3.6260   32.5551 H   0  0  0  0  0  0  0  0  0  0  0  0
    1.0940   -1.7645   31.1708 H   0  0  0  0  0  0  0  0  0  0  0  0
   -2.1487   -1.9730   27.9184 H   0  0  0  0  0  0  0  0  0  0  0  0
   -1.6488    0.1730   26.4210 H   0  0  0  0  0  0  0  0  0  0  0  0
    1.0877   -4.9860   31.2623 H   0  0  0  0  0  0  0  0  0  0  0  0
    2.2527   -4.2778   32.3612 H   0  0  0  0  0  0  0  0  0  0  0  0
   -0.1596   -6.6365   32.0053 H   0  0  0  0  0  0  0  0  0  0  0  0
  1  2  1  0
  2  3  1  0
  3  4  1  0
  4  5  2  0
  4  6  1  0
  6  7  1  0
  7  8  1  0
  8  9  1  0
  9 10  1  0
 10 11  2  0
 11 12  1  0
 12 13  1  0
 13 14  1  0
 14 15  1  0
 15 16  1  0
 16 17  2  0
 16 18  2  0
 16 19  1  0
 19 20  2  0
 20 21  1  0
 21 22  2  0
 22 23  1  0
 14 24  1  0
  7 25  1  0
 25  2  1  0
 24  7  1  0
 13  9  2  0
 23 19  1  0
  1 26  1  0
  1 27  1  0
  2 28  1  0
  3 29  1  0
  3 30  1  0
  6 31  1  0
  8 32  1  0
  8 33  1  0
 10 34  1  0
 11 35  1  0
 12 36  1  0
 14 37  1  0
 15 38  1  0
 20 39  1  0
 21 40  1  0
 24 41  1  0
 24 42  1  0
 25 43  1  0
M  END
>  <Energy>  (759) 
-172.7163367044401

>  <compound_id>  (759) 
2855

>  <target_id>  (759) 
1

>  <reference_id>  (759) 
156

>  <inspiration_ids>  (759) 
[186, 156]

>  <energy_score>  (759) 
-73.04972866122806

>  <distance_score>  (759) 
1.6529392352121632

>  <path>  (759) 
/opt/xchem-fragalysis-2/maxwin/BulkDock/SCRATCH/505736/C2855-P156/C2855-P156.minimised.mol

>  <scratch_subdir>  (759) 
/opt/xchem-fragalysis-2/maxwin/BulkDock/SCRATCH/505736/C2855-P156

>  <fragmenstein_runtime>  (759) 
6.270684003829956

>  <fragmenstein_outcome>  (759) 
too moved

>  <fragmenstein_mode>  (759) 
expansion

>  <fragmenstein_error>  (759) 


$$$$
C2815-P186
     RDKit          3D

 44 46  0  0  0  0  0  0  0  0999 V2000
    3.1848   -2.4245   33.4106 C   0  0  0  0  0  0  0  0  0  0  0  0
    3.6283   -3.7244   32.7483 C   0  0  0  0  0  0  0  0  0  0  0  0
    5.0659   -4.0369   33.1378 C   0  0  0  0  0  0  0  0  0  0  0  0
    4.9079   -4.7571   34.4621 C   0  0  0  0  0  0  0  0  0  0  0  0
    3.6458   -5.4362   34.4129 O   0  0  0  0  0  0  0  0  0  0  0  0
    2.9298   -4.9948   33.2441 C   0  0  0  0  0  0  0  0  0  0  0  0
    1.4198   -4.9491   33.5069 C   0  0  0  0  0  0  0  0  0  0  0  0
    0.9375   -4.1830   34.3437 O   0  0  0  0  0  0  0  0  0  0  0  0
    0.6593   -5.9586   32.8655 N   0  0  0  0  0  0  0  0  0  0  0  0
   -0.2644   -6.6088   33.6694 C   0  0  0  0  0  0  0  0  0  0  0  0
   -1.0835   -7.5401   33.1861 C   0  0  0  0  0  0  0  0  0  0  0  0
   -1.0443   -7.8512   31.7519 C   0  0  0  0  0  0  0  0  0  0  0  0
   -1.7989   -8.6861   31.2770 O   0  0  0  0  0  0  0  0  0  0  0  0
   -0.1790   -7.1342   30.9791 N   0  0  0  0  0  0  0  0  0  0  0  0
    0.5948   -6.2367   31.4971 C   0  0  0  0  0  0  0  0  0  0  0  0
    1.3670   -5.4178   30.4802 C   0  0  0  0  0  0  0  0  0  0  0  0
    0.5785   -4.1692   30.1449 C   0  0  0  0  0  0  0  0  0  0  0  0
    0.5102   -3.3084   31.3393 N   0  0  0  0  0  0  0  0  0  0  0  0
   -1.0062   -2.6373   31.7257 S   0  0  0  0  0  0  0  0  0  0  0  0
   -0.8439   -1.8308   32.9084 O   0  0  0  0  0  0  0  0  0  0  0  0
   -2.0137   -3.6652   31.5847 O   0  0  0  0  0  0  0  0  0  0  0  0
   -1.2405   -1.5447   30.3841 C   0  0  0  0  0  0  0  0  0  0  0  0
   -1.3747   -1.7600   29.0316 C   0  0  0  0  0  0  0  0  0  0  0  0
   -1.1753   -0.5450   28.3481 C   0  0  0  0  0  0  0  0  0  0  0  0
   -1.0447    0.5591   29.0749 N   0  0  0  0  0  0  0  0  0  0  0  0
   -1.0565    0.1174   30.6720 S   0  0  0  0  0  0  0  0  0  0  0  0
    3.2585   -2.4724   34.5022 H   0  0  0  0  0  0  0  0  0  0  0  0
    2.1530   -2.1674   33.1684 H   0  0  0  0  0  0  0  0  0  0  0  0
    3.8122   -1.5916   33.0740 H   0  0  0  0  0  0  0  0  0  0  0  0
    3.5375   -3.5977   31.6660 H   0  0  0  0  0  0  0  0  0  0  0  0
    5.5016   -4.7219   32.4000 H   0  0  0  0  0  0  0  0  0  0  0  0
    5.7209   -3.1636   33.2072 H   0  0  0  0  0  0  0  0  0  0  0  0
    4.8840   -4.0577   35.3039 H   0  0  0  0  0  0  0  0  0  0  0  0
    5.7069   -5.4829   34.6381 H   0  0  0  0  0  0  0  0  0  0  0  0
    3.1030   -5.7986   32.5401 H   0  0  0  0  0  0  0  0  0  0  0  0
   -0.2842   -6.3411   34.7242 H   0  0  0  0  0  0  0  0  0  0  0  0
   -1.7932   -8.0788   33.7968 H   0  0  0  0  0  0  0  0  0  0  0  0
    2.3730   -5.1752   30.7947 H   0  0  0  0  0  0  0  0  0  0  0  0
    1.4821   -6.0181   29.5696 H   0  0  0  0  0  0  0  0  0  0  0  0
   -0.4151   -4.4582   29.7925 H   0  0  0  0  0  0  0  0  0  0  0  0
    1.0755   -3.6179   29.3398 H   0  0  0  0  0  0  0  0  0  0  0  0
    1.2083   -2.5611   31.3607 H   0  0  0  0  0  0  0  0  0  0  0  0
   -1.4975   -2.7267   28.5627 H   0  0  0  0  0  0  0  0  0  0  0  0
   -1.1049   -0.4651   27.2810 H   0  0  0  0  0  0  0  0  0  0  0  0
  1  2  1  0
  2  3  1  0
  3  4  1  0
  4  5  1  0
  5  6  1  0
  6  7  1  0
  7  8  2  0
  7  9  1  0
  9 10  1  0
 10 11  2  0
 11 12  1  0
 12 13  2  0
 12 14  1  0
 14 15  2  0
 15 16  1  0
 16 17  1  0
 17 18  1  0
 18 19  1  0
 19 20  2  0
 19 21  2  0
 19 22  1  0
 22 23  2  0
 23 24  1  0
 24 25  2  0
 25 26  1  0
  6  2  1  0
 15  9  1  0
 26 22  1  0
  1 27  1  0
  1 28  1  0
  1 29  1  0
  2 30  1  0
  3 31  1  0
  3 32  1  0
  4 33  1  0
  4 34  1  0
  6 35  1  0
 10 36  1  0
 11 37  1  0
 16 38  1  0
 16 39  1  0
 17 40  1  0
 17 41  1  0
 18 42  1  0
 23 43  1  0
 24 44  1  0
M  END
>  <Energy>  (760) 
-20.181016263565624

>  <compound_id>  (760) 
2815

>  <target_id>  (760) 
1

>  <reference_id>  (760) 
186

>  <inspiration_ids>  (760) 
[186, 157]

>  <energy_score>  (760) 
-63.75526277911939

>  <distance_score>  (760) 
0.7800601685385888

>  <path>  (760) 
/opt/xchem-fragalysis-2/maxwin/BulkDock/SCRATCH/505736/C2815-P186/C2815-P186.minimised.mol

>  <scratch_subdir>  (760) 
/opt/xchem-fragalysis-2/maxwin/BulkDock/SCRATCH/505736/C2815-P186

>  <fragmenstein_runtime>  (760) 
1.8307690620422363

>  <fragmenstein_outcome>  (760) 
acceptable

>  <fragmenstein_mode>  (760) 
expansion

>  <fragmenstein_error>  (760) 


$$$$
C2815-P157
     RDKit          3D

 44 46  0  0  0  0  0  0  0  0999 V2000
    3.4275   -2.6880   32.9170 C   0  0  0  0  0  0  0  0  0  0  0  0
    3.9261   -4.1290   32.9548 C   0  0  0  0  0  0  0  0  0  0  0  0
    5.1141   -4.2603   33.8971 C   0  0  0  0  0  0  0  0  0  0  0  0
    4.4582   -4.5934   35.2170 C   0  0  0  0  0  0  0  0  0  0  0  0
    3.3493   -5.4379   34.8929 O   0  0  0  0  0  0  0  0  0  0  0  0
    2.9688   -5.1879   33.5293 C   0  0  0  0  0  0  0  0  0  0  0  0
    1.4634   -4.9208   33.4661 C   0  0  0  0  0  0  0  0  0  0  0  0
    0.9373   -3.8902   33.8826 O   0  0  0  0  0  0  0  0  0  0  0  0
    0.7084   -5.9554   32.9174 N   0  0  0  0  0  0  0  0  0  0  0  0
   -0.1708   -6.6275   33.7426 C   0  0  0  0  0  0  0  0  0  0  0  0
   -1.0134   -7.5363   33.2522 C   0  0  0  0  0  0  0  0  0  0  0  0
   -1.0110   -7.8036   31.8031 C   0  0  0  0  0  0  0  0  0  0  0  0
   -1.7259   -8.6741   31.3309 O   0  0  0  0  0  0  0  0  0  0  0  0
   -0.2170   -7.0094   31.0190 N   0  0  0  0  0  0  0  0  0  0  0  0
    0.5667   -6.1314   31.5514 C   0  0  0  0  0  0  0  0  0  0  0  0
    1.2964   -5.2060   30.5987 C   0  0  0  0  0  0  0  0  0  0  0  0
    0.3879   -4.0427   30.2255 C   0  0  0  0  0  0  0  0  0  0  0  0
    0.2473   -3.0783   31.3310 N   0  0  0  0  0  0  0  0  0  0  0  0
   -1.1824   -2.1875   31.3920 S   0  0  0  0  0  0  0  0  0  0  0  0
   -1.1031   -1.3392   32.5574 O   0  0  0  0  0  0  0  0  0  0  0  0
   -2.2675   -3.1296   31.2207 O   0  0  0  0  0  0  0  0  0  0  0  0
   -1.1458   -1.1661   29.9756 C   0  0  0  0  0  0  0  0  0  0  0  0
   -1.5333   -1.3109   28.6612 C   0  0  0  0  0  0  0  0  0  0  0  0
   -1.2218   -0.1404   27.9208 C   0  0  0  0  0  0  0  0  0  0  0  0
   -0.5845    0.8275   28.5732 N   0  0  0  0  0  0  0  0  0  0  0  0
   -0.3622    0.3347   30.1410 S   0  0  0  0  0  0  0  0  0  0  0  0
    3.0572   -2.3525   33.8906 H   0  0  0  0  0  0  0  0  0  0  0  0
    2.6339   -2.5645   32.1796 H   0  0  0  0  0  0  0  0  0  0  0  0
    4.2384   -2.0118   32.6234 H   0  0  0  0  0  0  0  0  0  0  0  0
    4.2302   -4.3952   31.9363 H   0  0  0  0  0  0  0  0  0  0  0  0
    5.7340   -5.1068   33.5758 H   0  0  0  0  0  0  0  0  0  0  0  0
    5.7546   -3.3756   33.9520 H   0  0  0  0  0  0  0  0  0  0  0  0
    4.0744   -3.6985   35.7180 H   0  0  0  0  0  0  0  0  0  0  0  0
    5.1315   -5.1168   35.9013 H   0  0  0  0  0  0  0  0  0  0  0  0
    3.1448   -6.1308   33.0162 H   0  0  0  0  0  0  0  0  0  0  0  0
   -0.1505   -6.3895   34.8045 H   0  0  0  0  0  0  0  0  0  0  0  0
   -1.7092   -8.0923   33.8672 H   0  0  0  0  0  0  0  0  0  0  0  0
    2.2401   -4.8516   31.0025 H   0  0  0  0  0  0  0  0  0  0  0  0
    1.5401   -5.7781   29.6963 H   0  0  0  0  0  0  0  0  0  0  0  0
   -0.5839   -4.4262   29.9071 H   0  0  0  0  0  0  0  0  0  0  0  0
    0.8231   -3.5096   29.3727 H   0  0  0  0  0  0  0  0  0  0  0  0
    0.3874   -3.3728   32.3027 H   0  0  0  0  0  0  0  0  0  0  0  0
   -2.0263   -2.1816   28.2581 H   0  0  0  0  0  0  0  0  0  0  0  0
   -1.4537    0.0256   26.8759 H   0  0  0  0  0  0  0  0  0  0  0  0
  1  2  1  0
  2  3  1  0
  3  4  1  0
  4  5  1  0
  5  6  1  0
  6  7  1  0
  7  8  2  0
  7  9  1  0
  9 10  1  0
 10 11  2  0
 11 12  1  0
 12 13  2  0
 12 14  1  0
 14 15  2  0
 15 16  1  0
 16 17  1  0
 17 18  1  0
 18 19  1  0
 19 20  2  0
 19 21  2  0
 19 22  1  0
 22 23  2  0
 23 24  1  0
 24 25  2  0
 25 26  1  0
  6  2  1  0
 15  9  1  0
 26 22  1  0
  1 27  1  0
  1 28  1  0
  1 29  1  0
  2 30  1  0
  3 31  1  0
  3 32  1  0
  4 33  1  0
  4 34  1  0
  6 35  1  0
 10 36  1  0
 11 37  1  0
 16 38  1  0
 16 39  1  0
 17 40  1  0
 17 41  1  0
 18 42  1  0
 23 43  1  0
 24 44  1  0
M  END
>  <Energy>  (761) 
-26.989878446766376

>  <compound_id>  (761) 
2815

>  <target_id>  (761) 
1

>  <reference_id>  (761) 
157

>  <inspiration_ids>  (761) 
[186, 157]

>  <energy_score>  (761) 
-70.56412496232215

>  <distance_score>  (761) 
0.9211606937256583

>  <path>  (761) 
/opt/xchem-fragalysis-2/maxwin/BulkDock/SCRATCH/505736/C2815-P157/C2815-P157.minimised.mol

>  <scratch_subdir>  (761) 
/opt/xchem-fragalysis-2/maxwin/BulkDock/SCRATCH/505736/C2815-P157

>  <fragmenstein_runtime>  (761) 
2.2531440258026123

>  <fragmenstein_outcome>  (761) 
acceptable

>  <fragmenstein_mode>  (761) 
expansion

>  <fragmenstein_error>  (761) 


$$$$
C436-P186
     RDKit          3D

 60 63  0  0  0  0  0  0  0  0999 V2000
    3.1347   -7.8516   37.2649 C   0  0  0  0  0  0  0  0  0  0  0  0
    1.9799   -6.9590   37.5989 C   0  0  0  0  0  0  0  0  0  0  0  0
    1.1342   -7.2501   38.6572 C   0  0  0  0  0  0  0  0  0  0  0  0
    0.1334   -6.3410   38.9570 C   0  0  0  0  0  0  0  0  0  0  0  0
    0.0076   -5.1792   38.1856 C   0  0  0  0  0  0  0  0  0  0  0  0
    0.8861   -4.9453   37.1253 C   0  0  0  0  0  0  0  0  0  0  0  0
    0.7907   -3.7279   36.4249 N   0  0  0  0  0  0  0  0  0  0  0  0
    1.5750   -3.2128   35.1554 C   0  0  0  0  0  0  0  0  0  0  0  0
    2.3561   -3.7619   34.4685 O   0  0  0  0  0  0  0  0  0  0  0  0
    1.2169   -1.6552   34.9630 C   0  0  0  0  0  0  0  0  0  0  0  0
    1.7876   -0.8547   36.1390 C   0  0  0  0  0  0  0  0  0  0  0  0
    3.1436   -0.3440   35.6629 C   0  0  0  0  0  0  0  0  0  0  0  0
    3.2803   -0.8314   34.2293 C   0  0  0  0  0  0  0  0  0  0  0  0
    1.9010   -1.0574   33.7479 N   0  0  0  0  0  0  0  0  0  0  0  0
    1.3229    0.2460   33.2820 C   0  0  0  0  0  0  0  0  0  0  0  0
    0.3659    0.0907   32.1266 C   0  0  0  0  0  0  0  0  0  0  0  0
   -0.9346    0.5416   31.9216 C   0  0  0  0  0  0  0  0  0  0  0  0
   -1.6233   -0.2424   30.9168 C   0  0  0  0  0  0  0  0  0  0  0  0
   -0.8556   -1.3905   30.8327 C   0  0  0  0  0  0  0  0  0  0  0  0
   -1.0125   -2.9179   31.7277 S   0  0  0  0  0  0  0  0  0  0  0  0
   -1.1957   -2.5090   33.1031 O   0  0  0  0  0  0  0  0  0  0  0  0
   -2.0275   -3.6858   31.0529 O   0  0  0  0  0  0  0  0  0  0  0  0
    0.4392   -3.7069   31.6257 N   0  0  0  0  0  0  0  0  0  0  0  0
    0.8761   -4.2683   30.3536 C   0  0  0  0  0  0  0  0  0  0  0  0
    1.6279   -5.5531   30.6465 C   0  0  0  0  0  0  0  0  0  0  0  0
    0.7975   -6.3994   31.5754 C   0  0  0  0  0  0  0  0  0  0  0  0
    1.0749   -6.4529   32.8382 N   0  0  0  0  0  0  0  0  0  0  0  0
    0.1556   -7.0587   33.6482 C   0  0  0  0  0  0  0  0  0  0  0  0
   -0.9408   -7.6826   33.2136 C   0  0  0  0  0  0  0  0  0  0  0  0
   -1.1360   -7.7576   31.7629 C   0  0  0  0  0  0  0  0  0  0  0  0
   -2.0147   -8.4359   31.2497 O   0  0  0  0  0  0  0  0  0  0  0  0
   -0.2739   -7.0249   31.0141 N   0  0  0  0  0  0  0  0  0  0  0  0
    0.7678   -0.7938   30.7051 S   0  0  0  0  0  0  0  0  0  0  0  0
    1.8534   -5.8366   36.8342 N   0  0  0  0  0  0  0  0  0  0  0  0
    3.0971   -8.1299   36.2071 H   0  0  0  0  0  0  0  0  0  0  0  0
    4.0753   -7.3266   37.4586 H   0  0  0  0  0  0  0  0  0  0  0  0
    3.1267   -8.7662   37.8649 H   0  0  0  0  0  0  0  0  0  0  0  0
    1.2530   -8.1568   39.2433 H   0  0  0  0  0  0  0  0  0  0  0  0
   -0.5400   -6.5194   39.7901 H   0  0  0  0  0  0  0  0  0  0  0  0
   -0.7710   -4.4638   38.4303 H   0  0  0  0  0  0  0  0  0  0  0  0
    0.1356   -3.0226   36.7267 H   0  0  0  0  0  0  0  0  0  0  0  0
    0.1298   -1.5659   34.9045 H   0  0  0  0  0  0  0  0  0  0  0  0
    1.1386   -0.0019   36.3710 H   0  0  0  0  0  0  0  0  0  0  0  0
    1.9023   -1.4373   37.0579 H   0  0  0  0  0  0  0  0  0  0  0  0
    3.9582   -0.7226   36.2889 H   0  0  0  0  0  0  0  0  0  0  0  0
    3.1656    0.7508   35.7085 H   0  0  0  0  0  0  0  0  0  0  0  0
    3.8371   -1.7751   34.2084 H   0  0  0  0  0  0  0  0  0  0  0  0
    3.8579   -0.1388   33.6068 H   0  0  0  0  0  0  0  0  0  0  0  0
    0.8280    0.7767   34.1040 H   0  0  0  0  0  0  0  0  0  0  0  0
    2.1172    0.9129   32.9203 H   0  0  0  0  0  0  0  0  0  0  0  0
   -1.4265    1.2246   32.5975 H   0  0  0  0  0  0  0  0  0  0  0  0
   -2.7005   -0.2210   30.8412 H   0  0  0  0  0  0  0  0  0  0  0  0
    1.1591   -3.3681   32.2775 H   0  0  0  0  0  0  0  0  0  0  0  0
    0.0234   -4.4795   29.7004 H   0  0  0  0  0  0  0  0  0  0  0  0
    1.5365   -3.5703   29.8322 H   0  0  0  0  0  0  0  0  0  0  0  0
    2.5808   -5.3210   31.1317 H   0  0  0  0  0  0  0  0  0  0  0  0
    1.8278   -6.0859   29.7125 H   0  0  0  0  0  0  0  0  0  0  0  0
    0.3538   -6.9837   34.7148 H   0  0  0  0  0  0  0  0  0  0  0  0
   -1.6617   -8.1478   33.8655 H   0  0  0  0  0  0  0  0  0  0  0  0
   -0.4306   -7.0176   30.0188 H   0  0  0  0  0  0  0  0  0  0  0  0
  1  2  1  0
  2  3  2  0
  3  4  1  0
  4  5  2  0
  5  6  1  0
  6  7  1  0
  7  8  1  0
  8  9  2  0
  8 10  1  0
 10 11  1  0
 11 12  1  0
 12 13  1  0
 13 14  1  0
 14 15  1  0
 15 16  1  0
 16 17  2  0
 17 18  1  0
 18 19  2  0
 19 20  1  0
 20 21  2  0
 20 22  2  0
 20 23  1  0
 23 24  1  0
 24 25  1  0
 25 26  1  0
 26 27  2  0
 27 28  1  0
 28 29  2  0
 29 30  1  0
 30 31  2  0
 30 32  1  0
 19 33  1  0
  6 34  2  0
 34  2  1  0
 14 10  1  0
 33 16  1  0
 32 26  1  0
  1 35  1  0
  1 36  1  0
  1 37  1  0
  3 38  1  0
  4 39  1  0
  5 40  1  0
  7 41  1  0
 10 42  1  0
 11 43  1  0
 11 44  1  0
 12 45  1  0
 12 46  1  0
 13 47  1  0
 13 48  1  0
 15 49  1  0
 15 50  1  0
 17 51  1  0
 18 52  1  0
 23 53  1  0
 24 54  1  0
 24 55  1  0
 25 56  1  0
 25 57  1  0
 28 58  1  0
 29 59  1  0
 32 60  1  0
M  END
>  <Energy>  (762) 
-1.8395206773192134

>  <compound_id>  (762) 
436

>  <target_id>  (762) 
1

>  <reference_id>  (762) 
186

>  <inspiration_ids>  (762) 
[186, 159]

>  <energy_score>  (762) 
-15.905190701773023

>  <distance_score>  (762) 
2.2152068641629334

>  <path>  (762) 
/opt/xchem-fragalysis-2/maxwin/BulkDock/SCRATCH/505736/C436-P186/C436-P186.minimised.mol

>  <scratch_subdir>  (762) 
/opt/xchem-fragalysis-2/maxwin/BulkDock/SCRATCH/505736/C436-P186

>  <fragmenstein_runtime>  (762) 
10.661741495132446

>  <fragmenstein_outcome>  (762) 
too moved

>  <fragmenstein_mode>  (762) 
expansion

>  <fragmenstein_error>  (762) 


$$$$
C436-P159
     RDKit          3D

 60 63  0  0  0  0  0  0  0  0999 V2000
    2.6212   -7.7995   37.2856 C   0  0  0  0  0  0  0  0  0  0  0  0
    1.4707   -7.1974   38.0314 C   0  0  0  0  0  0  0  0  0  0  0  0
    1.0269   -7.7442   39.2249 C   0  0  0  0  0  0  0  0  0  0  0  0
   -0.0070   -7.1045   39.8893 C   0  0  0  0  0  0  0  0  0  0  0  0
   -0.5706   -5.9521   39.3341 C   0  0  0  0  0  0  0  0  0  0  0  0
   -0.0874   -5.4617   38.1253 C   0  0  0  0  0  0  0  0  0  0  0  0
   -0.6611   -4.2974   37.5998 N   0  0  0  0  0  0  0  0  0  0  0  0
   -0.2431   -3.4240   36.3609 C   0  0  0  0  0  0  0  0  0  0  0  0
    0.6854   -3.5105   35.6501 O   0  0  0  0  0  0  0  0  0  0  0  0
   -1.3304   -2.2451   36.2235 C   0  0  0  0  0  0  0  0  0  0  0  0
   -1.2942   -1.3132   37.4304 C   0  0  0  0  0  0  0  0  0  0  0  0
   -0.2410   -0.2685   37.0810 C   0  0  0  0  0  0  0  0  0  0  0  0
    0.0359   -0.4437   35.5930 C   0  0  0  0  0  0  0  0  0  0  0  0
   -1.0304   -1.3211   35.0830 N   0  0  0  0  0  0  0  0  0  0  0  0
   -2.1680   -0.5341   34.5454 C   0  0  0  0  0  0  0  0  0  0  0  0
   -2.0910   -0.3848   33.0266 C   0  0  0  0  0  0  0  0  0  0  0  0
   -3.0321   -0.6455   32.0254 C   0  0  0  0  0  0  0  0  0  0  0  0
   -2.3881   -1.0341   30.7896 C   0  0  0  0  0  0  0  0  0  0  0  0
   -1.0925   -1.3039   31.1776 C   0  0  0  0  0  0  0  0  0  0  0  0
   -0.3023   -2.8464   31.4583 S   0  0  0  0  0  0  0  0  0  0  0  0
    0.4993   -2.6975   32.6425 O   0  0  0  0  0  0  0  0  0  0  0  0
   -1.3637   -3.8284   31.3356 O   0  0  0  0  0  0  0  0  0  0  0  0
    0.7858   -3.0217   30.2066 N   0  0  0  0  0  0  0  0  0  0  0  0
    0.7709   -4.2965   29.5062 C   0  0  0  0  0  0  0  0  0  0  0  0
    1.5143   -5.3695   30.2746 C   0  0  0  0  0  0  0  0  0  0  0  0
    0.7170   -6.0406   31.3724 C   0  0  0  0  0  0  0  0  0  0  0  0
    1.0755   -5.9080   32.6070 N   0  0  0  0  0  0  0  0  0  0  0  0
    0.2747   -6.4821   33.5608 C   0  0  0  0  0  0  0  0  0  0  0  0
   -0.7623   -7.2830   33.3002 C   0  0  0  0  0  0  0  0  0  0  0  0
   -1.0666   -7.5293   31.8863 C   0  0  0  0  0  0  0  0  0  0  0  0
   -1.9128   -8.3374   31.5262 O   0  0  0  0  0  0  0  0  0  0  0  0
   -0.3397   -6.8097   30.9872 N   0  0  0  0  0  0  0  0  0  0  0  0
   -0.6246    0.0007   32.1912 S   0  0  0  0  0  0  0  0  0  0  0  0
    0.9195   -6.0817   37.4795 N   0  0  0  0  0  0  0  0  0  0  0  0
    2.9948   -8.7033   37.7764 H   0  0  0  0  0  0  0  0  0  0  0  0
    2.3100   -8.0615   36.2695 H   0  0  0  0  0  0  0  0  0  0  0  0
    3.4433   -7.0792   37.2286 H   0  0  0  0  0  0  0  0  0  0  0  0
    1.4728   -8.6448   39.6360 H   0  0  0  0  0  0  0  0  0  0  0  0
   -0.3770   -7.4965   40.8325 H   0  0  0  0  0  0  0  0  0  0  0  0
   -1.3763   -5.4498   39.8599 H   0  0  0  0  0  0  0  0  0  0  0  0
   -1.4770   -3.8970   38.0355 H   0  0  0  0  0  0  0  0  0  0  0  0
   -2.3023   -2.7301   36.0955 H   0  0  0  0  0  0  0  0  0  0  0  0
   -2.2671   -0.8211   37.5522 H   0  0  0  0  0  0  0  0  0  0  0  0
   -1.0510   -1.8012   38.3780 H   0  0  0  0  0  0  0  0  0  0  0  0
    0.6743   -0.4242   37.6623 H   0  0  0  0  0  0  0  0  0  0  0  0
   -0.6165    0.7360   37.3042 H   0  0  0  0  0  0  0  0  0  0  0  0
    1.0080   -0.9300   35.4507 H   0  0  0  0  0  0  0  0  0  0  0  0
    0.1035    0.5241   35.0845 H   0  0  0  0  0  0  0  0  0  0  0  0
   -3.1053   -1.0651   34.7568 H   0  0  0  0  0  0  0  0  0  0  0  0
   -2.2585    0.4532   35.0147 H   0  0  0  0  0  0  0  0  0  0  0  0
   -4.0824   -0.8080   32.2296 H   0  0  0  0  0  0  0  0  0  0  0  0
   -2.9059   -1.5830   30.0131 H   0  0  0  0  0  0  0  0  0  0  0  0
    1.7027   -2.6983   30.5226 H   0  0  0  0  0  0  0  0  0  0  0  0
   -0.2512   -4.5817   29.2464 H   0  0  0  0  0  0  0  0  0  0  0  0
    1.2956   -4.1267   28.5585 H   0  0  0  0  0  0  0  0  0  0  0  0
    2.4316   -4.9500   30.7008 H   0  0  0  0  0  0  0  0  0  0  0  0
    1.8070   -6.1428   29.5585 H   0  0  0  0  0  0  0  0  0  0  0  0
    0.5294   -6.2335   34.5913 H   0  0  0  0  0  0  0  0  0  0  0  0
   -1.3784   -7.7385   34.0606 H   0  0  0  0  0  0  0  0  0  0  0  0
   -0.5809   -6.9353   30.0182 H   0  0  0  0  0  0  0  0  0  0  0  0
  1  2  1  0
  2  3  2  0
  3  4  1  0
  4  5  2  0
  5  6  1  0
  6  7  1  0
  7  8  1  0
  8  9  2  0
  8 10  1  0
 10 11  1  0
 11 12  1  0
 12 13  1  0
 13 14  1  0
 14 15  1  0
 15 16  1  0
 16 17  2  0
 17 18  1  0
 18 19  2  0
 19 20  1  0
 20 21  2  0
 20 22  2  0
 20 23  1  0
 23 24  1  0
 24 25  1  0
 25 26  1  0
 26 27  2  0
 27 28  1  0
 28 29  2  0
 29 30  1  0
 30 31  2  0
 30 32  1  0
 19 33  1  0
  6 34  2  0
 34  2  1  0
 14 10  1  0
 33 16  1  0
 32 26  1  0
  1 35  1  0
  1 36  1  0
  1 37  1  0
  3 38  1  0
  4 39  1  0
  5 40  1  0
  7 41  1  0
 10 42  1  0
 11 43  1  0
 11 44  1  0
 12 45  1  0
 12 46  1  0
 13 47  1  0
 13 48  1  0
 15 49  1  0
 15 50  1  0
 17 51  1  0
 18 52  1  0
 23 53  1  0
 24 54  1  0
 24 55  1  0
 25 56  1  0
 25 57  1  0
 28 58  1  0
 29 59  1  0
 32 60  1  0
M  END
>  <Energy>  (763) 
10.24905146894616

>  <compound_id>  (763) 
436

>  <target_id>  (763) 
1

>  <reference_id>  (763) 
159

>  <inspiration_ids>  (763) 
[186, 159]

>  <energy_score>  (763) 
-3.8166185555035383

>  <distance_score>  (763) 
2.0540102116183623

>  <path>  (763) 
/opt/xchem-fragalysis-2/maxwin/BulkDock/SCRATCH/505736/C436-P159/C436-P159.minimised.mol

>  <scratch_subdir>  (763) 
/opt/xchem-fragalysis-2/maxwin/BulkDock/SCRATCH/505736/C436-P159

>  <fragmenstein_runtime>  (763) 
6.604299068450928

>  <fragmenstein_outcome>  (763) 
too moved

>  <fragmenstein_mode>  (763) 
expansion

>  <fragmenstein_error>  (763) 


$$$$
C2817-P186
     RDKit          3D

 56 58  0  0  0  0  0  0  0  0999 V2000
    0.5233    8.8226   30.2016 C   0  0  0  0  0  0  0  0  0  0  0  0
    0.9289    7.6716   31.1058 C   0  0  0  0  0  0  0  0  0  0  0  0
    0.9643    6.3403   30.3616 C   0  0  0  0  0  0  0  0  0  0  0  0
    0.7566    6.2191   29.2163 O   0  0  0  0  0  0  0  0  0  0  0  0
    1.3291    5.2728   31.4421 N   0  0  0  0  0  0  0  0  0  0  0  0
    1.4137    3.8897   31.3501 C   0  0  0  0  0  0  0  0  0  0  0  0
    1.0258    3.2108   30.2057 C   0  0  0  0  0  0  0  0  0  0  0  0
    1.0938    1.8023   30.1322 C   0  0  0  0  0  0  0  0  0  0  0  0
    0.5563    1.1940   28.8429 C   0  0  0  0  0  0  0  0  0  0  0  0
   -0.4428    0.0959   29.0345 C   0  0  0  0  0  0  0  0  0  0  0  0
   -0.7006   -0.9832   28.2116 C   0  0  0  0  0  0  0  0  0  0  0  0
   -1.2742   -2.0531   28.9544 C   0  0  0  0  0  0  0  0  0  0  0  0
   -1.3701   -1.7143   30.2916 C   0  0  0  0  0  0  0  0  0  0  0  0
   -1.3495   -2.6609   31.7695 S   0  0  0  0  0  0  0  0  0  0  0  0
   -1.4254   -1.7727   32.9052 O   0  0  0  0  0  0  0  0  0  0  0  0
   -2.2962   -3.7304   31.5674 O   0  0  0  0  0  0  0  0  0  0  0  0
    0.1898   -3.3920   31.8504 N   0  0  0  0  0  0  0  0  0  0  0  0
    0.6215   -4.1464   30.6429 C   0  0  0  0  0  0  0  0  0  0  0  0
    1.5387   -5.2952   31.0364 C   0  0  0  0  0  0  0  0  0  0  0  0
    0.6962   -6.2818   31.8049 C   0  0  0  0  0  0  0  0  0  0  0  0
   -0.1369   -7.0044   31.1256 N   0  0  0  0  0  0  0  0  0  0  0  0
   -1.0328   -7.8016   31.8042 C   0  0  0  0  0  0  0  0  0  0  0  0
   -1.7971   -8.5589   31.2205 O   0  0  0  0  0  0  0  0  0  0  0  0
   -1.0941   -7.6817   33.2846 C   0  0  0  0  0  0  0  0  0  0  0  0
   -0.1673   -6.9451   33.8997 C   0  0  0  0  0  0  0  0  0  0  0  0
    0.7808   -6.2855   33.1762 N   0  0  0  0  0  0  0  0  0  0  0  0
   -1.4115   -0.0211   30.4466 S   0  0  0  0  0  0  0  0  0  0  0  0
    1.6461    1.0772   31.2210 C   0  0  0  0  0  0  0  0  0  0  0  0
    1.8591   -0.4146   31.2632 C   0  0  0  0  0  0  0  0  0  0  0  0
    2.0065    1.7784   32.3824 C   0  0  0  0  0  0  0  0  0  0  0  0
    1.8777    3.1636   32.4421 C   0  0  0  0  0  0  0  0  0  0  0  0
    2.2252    3.8451   33.5821 O   0  0  0  0  0  0  0  0  0  0  0  0
    1.2270    8.9367   29.3704 H   0  0  0  0  0  0  0  0  0  0  0  0
   -0.4724    8.6559   29.7773 H   0  0  0  0  0  0  0  0  0  0  0  0
    0.5032    9.7609   30.7644 H   0  0  0  0  0  0  0  0  0  0  0  0
    0.2138    7.5932   31.9322 H   0  0  0  0  0  0  0  0  0  0  0  0
    1.9245    7.8670   31.5192 H   0  0  0  0  0  0  0  0  0  0  0  0
    1.5223    5.7343   32.3231 H   0  0  0  0  0  0  0  0  0  0  0  0
    0.6348    3.7744   29.3599 H   0  0  0  0  0  0  0  0  0  0  0  0
    1.4146    0.8195   28.2705 H   0  0  0  0  0  0  0  0  0  0  0  0
    0.0837    1.9656   28.2268 H   0  0  0  0  0  0  0  0  0  0  0  0
   -0.3126   -1.0875   27.2070 H   0  0  0  0  0  0  0  0  0  0  0  0
   -1.3793   -3.0625   28.5769 H   0  0  0  0  0  0  0  0  0  0  0  0
    0.1426   -3.9538   32.7016 H   0  0  0  0  0  0  0  0  0  0  0  0
   -0.2430   -4.5391   30.0990 H   0  0  0  0  0  0  0  0  0  0  0  0
    1.1614   -3.4591   29.9838 H   0  0  0  0  0  0  0  0  0  0  0  0
    2.3765   -4.9496   31.6504 H   0  0  0  0  0  0  0  0  0  0  0  0
    1.9364   -5.7799   30.1393 H   0  0  0  0  0  0  0  0  0  0  0  0
   -1.8737   -8.2176   33.8046 H   0  0  0  0  0  0  0  0  0  0  0  0
   -0.1398   -6.8244   34.9784 H   0  0  0  0  0  0  0  0  0  0  0  0
    1.4102   -5.6658   33.6771 H   0  0  0  0  0  0  0  0  0  0  0  0
    2.8810   -0.6311   31.5957 H   0  0  0  0  0  0  0  0  0  0  0  0
    1.7557   -0.8812   30.2818 H   0  0  0  0  0  0  0  0  0  0  0  0
    1.1671   -0.8706   31.9725 H   0  0  0  0  0  0  0  0  0  0  0  0
    2.3933    1.2296   33.2369 H   0  0  0  0  0  0  0  0  0  0  0  0
    2.5554    3.2020   34.2307 H   0  0  0  0  0  0  0  0  0  0  0  0
  1  2  1  0
  2  3  1  0
  3  4  2  0
  3  5  1  0
  5  6  1  0
  6  7  2  0
  7  8  1  0
  8  9  1  0
  9 10  1  0
 10 11  2  0
 11 12  1  0
 12 13  2  0
 13 14  1  0
 14 15  2  0
 14 16  2  0
 14 17  1  0
 17 18  1  0
 18 19  1  0
 19 20  1  0
 20 21  2  0
 21 22  1  0
 22 23  2  0
 22 24  1  0
 24 25  2  0
 25 26  1  0
 13 27  1  0
  8 28  2  0
 28 29  1  0
 28 30  1  0
 30 31  2  0
 31 32  1  0
 31  6  1  0
 27 10  1  0
 26 20  1  0
  1 33  1  0
  1 34  1  0
  1 35  1  0
  2 36  1  0
  2 37  1  0
  5 38  1  0
  7 39  1  0
  9 40  1  0
  9 41  1  0
 11 42  1  0
 12 43  1  0
 17 44  1  0
 18 45  1  0
 18 46  1  0
 19 47  1  0
 19 48  1  0
 24 49  1  0
 25 50  1  0
 26 51  1  0
 29 52  1  0
 29 53  1  0
 29 54  1  0
 30 55  1  0
 32 56  1  0
M  END
>  <Energy>  (764) 
-11.438312899358079

>  <compound_id>  (764) 
2817

>  <target_id>  (764) 
1

>  <reference_id>  (764) 
186

>  <inspiration_ids>  (764) 
[186, 163]

>  <energy_score>  (764) 
-64.92711724597297

>  <distance_score>  (764) 
1.3402968235547832

>  <path>  (764) 
/opt/xchem-fragalysis-2/maxwin/BulkDock/SCRATCH/505736/C2817-P186/C2817-P186.minimised.mol

>  <scratch_subdir>  (764) 
/opt/xchem-fragalysis-2/maxwin/BulkDock/SCRATCH/505736/C2817-P186

>  <fragmenstein_runtime>  (764) 
20.229851961135864

>  <fragmenstein_outcome>  (764) 
too moved

>  <fragmenstein_mode>  (764) 
expansion

>  <fragmenstein_error>  (764) 


$$$$
C2817-P163
     RDKit          3D

 56 58  0  0  0  0  0  0  0  0999 V2000
    5.1367    2.8552   24.1044 C   0  0  0  0  0  0  0  0  0  0  0  0
    5.2920    2.1649   25.4485 C   0  0  0  0  0  0  0  0  0  0  0  0
    3.9765    2.1015   26.2200 C   0  0  0  0  0  0  0  0  0  0  0  0
    2.9394    2.4184   25.7794 O   0  0  0  0  0  0  0  0  0  0  0  0
    4.3446    1.5178   27.6220 N   0  0  0  0  0  0  0  0  0  0  0  0
    3.5555    1.3062   28.7466 C   0  0  0  0  0  0  0  0  0  0  0  0
    2.2001    1.5834   28.7406 C   0  0  0  0  0  0  0  0  0  0  0  0
    1.4090    1.3604   29.8861 C   0  0  0  0  0  0  0  0  0  0  0  0
   -0.0556    1.7086   29.7442 C   0  0  0  0  0  0  0  0  0  0  0  0
   -0.8752    0.4716   29.6420 C   0  0  0  0  0  0  0  0  0  0  0  0
   -1.0233   -0.4363   28.6103 C   0  0  0  0  0  0  0  0  0  0  0  0
   -1.3458   -1.7274   29.1411 C   0  0  0  0  0  0  0  0  0  0  0  0
   -1.4087   -1.6781   30.5234 C   0  0  0  0  0  0  0  0  0  0  0  0
   -1.1291   -2.8416   31.8145 S   0  0  0  0  0  0  0  0  0  0  0  0
   -1.0853   -2.1175   33.0643 O   0  0  0  0  0  0  0  0  0  0  0  0
   -2.0409   -3.9307   31.5761 O   0  0  0  0  0  0  0  0  0  0  0  0
    0.4645   -3.3705   31.5585 N   0  0  0  0  0  0  0  0  0  0  0  0
    0.7226   -4.1488   30.3303 C   0  0  0  0  0  0  0  0  0  0  0  0
    1.5236   -5.3806   30.7081 C   0  0  0  0  0  0  0  0  0  0  0  0
    0.6482   -6.2565   31.5745 C   0  0  0  0  0  0  0  0  0  0  0  0
   -0.1211   -7.1079   30.9744 N   0  0  0  0  0  0  0  0  0  0  0  0
   -1.0200   -7.8292   31.7312 C   0  0  0  0  0  0  0  0  0  0  0  0
   -1.7806   -8.6437   31.2249 O   0  0  0  0  0  0  0  0  0  0  0  0
   -1.0915   -7.5727   33.1923 C   0  0  0  0  0  0  0  0  0  0  0  0
   -0.2452   -6.6884   33.7191 C   0  0  0  0  0  0  0  0  0  0  0  0
    0.6774   -6.0606   32.9355 N   0  0  0  0  0  0  0  0  0  0  0  0
   -1.7140   -0.0825   31.0201 S   0  0  0  0  0  0  0  0  0  0  0  0
    1.9997    0.8359   31.0647 C   0  0  0  0  0  0  0  0  0  0  0  0
    1.2656    0.5189   32.3402 C   0  0  0  0  0  0  0  0  0  0  0  0
    3.3721    0.5604   31.0531 C   0  0  0  0  0  0  0  0  0  0  0  0
    4.1319    0.8061   29.9108 C   0  0  0  0  0  0  0  0  0  0  0  0
    5.4798    0.5440   29.9074 O   0  0  0  0  0  0  0  0  0  0  0  0
    4.4126    2.3330   23.4715 H   0  0  0  0  0  0  0  0  0  0  0  0
    4.7863    3.8848   24.2318 H   0  0  0  0  0  0  0  0  0  0  0  0
    6.0951    2.8823   23.5768 H   0  0  0  0  0  0  0  0  0  0  0  0
    6.0292    2.7108   26.0477 H   0  0  0  0  0  0  0  0  0  0  0  0
    5.6518    1.1415   25.2954 H   0  0  0  0  0  0  0  0  0  0  0  0
    5.3298    1.2775   27.6416 H   0  0  0  0  0  0  0  0  0  0  0  0
    1.7348    1.9784   27.8400 H   0  0  0  0  0  0  0  0  0  0  0  0
   -0.2884    2.3132   30.6217 H   0  0  0  0  0  0  0  0  0  0  0  0
   -0.2400    2.3498   28.8737 H   0  0  0  0  0  0  0  0  0  0  0  0
   -0.7074   -0.2655   27.5867 H   0  0  0  0  0  0  0  0  0  0  0  0
   -1.3205   -2.6417   28.5597 H   0  0  0  0  0  0  0  0  0  0  0  0
    1.1112   -2.5922   31.6979 H   0  0  0  0  0  0  0  0  0  0  0  0
   -0.2053   -4.4489   29.8344 H   0  0  0  0  0  0  0  0  0  0  0  0
    1.2926   -3.5262   29.6328 H   0  0  0  0  0  0  0  0  0  0  0  0
    2.4352   -5.1154   31.2545 H   0  0  0  0  0  0  0  0  0  0  0  0
    1.8090   -5.9278   29.8040 H   0  0  0  0  0  0  0  0  0  0  0  0
   -1.8419   -8.0961   33.7649 H   0  0  0  0  0  0  0  0  0  0  0  0
   -0.2660   -6.4112   34.7683 H   0  0  0  0  0  0  0  0  0  0  0  0
    1.0314   -5.1736   33.2867 H   0  0  0  0  0  0  0  0  0  0  0  0
    1.9282    0.6427   33.2052 H   0  0  0  0  0  0  0  0  0  0  0  0
    0.9222   -0.5134   32.3335 H   0  0  0  0  0  0  0  0  0  0  0  0
    0.4352    1.2081   32.5091 H   0  0  0  0  0  0  0  0  0  0  0  0
    3.8488    0.1575   31.9428 H   0  0  0  0  0  0  0  0  0  0  0  0
    5.7600    0.3641   30.8200 H   0  0  0  0  0  0  0  0  0  0  0  0
  1  2  1  0
  2  3  1  0
  3  4  2  0
  3  5  1  0
  5  6  1  0
  6  7  2  0
  7  8  1  0
  8  9  1  0
  9 10  1  0
 10 11  2  0
 11 12  1  0
 12 13  2  0
 13 14  1  0
 14 15  2  0
 14 16  2  0
 14 17  1  0
 17 18  1  0
 18 19  1  0
 19 20  1  0
 20 21  2  0
 21 22  1  0
 22 23  2  0
 22 24  1  0
 24 25  2  0
 25 26  1  0
 13 27  1  0
  8 28  2  0
 28 29  1  0
 28 30  1  0
 30 31  2  0
 31 32  1  0
 31  6  1  0
 27 10  1  0
 26 20  1  0
  1 33  1  0
  1 34  1  0
  1 35  1  0
  2 36  1  0
  2 37  1  0
  5 38  1  0
  7 39  1  0
  9 40  1  0
  9 41  1  0
 11 42  1  0
 12 43  1  0
 17 44  1  0
 18 45  1  0
 18 46  1  0
 19 47  1  0
 19 48  1  0
 24 49  1  0
 25 50  1  0
 26 51  1  0
 29 52  1  0
 29 53  1  0
 29 54  1  0
 30 55  1  0
 32 56  1  0
M  END
>  <Energy>  (765) 
-18.384809919712353

>  <compound_id>  (765) 
2817

>  <target_id>  (765) 
1

>  <reference_id>  (765) 
163

>  <inspiration_ids>  (765) 
[186, 163]

>  <energy_score>  (765) 
-71.87361426632444

>  <distance_score>  (765) 
1.5672524142376587

>  <path>  (765) 
/opt/xchem-fragalysis-2/maxwin/BulkDock/SCRATCH/505736/C2817-P163/C2817-P163.minimised.mol

>  <scratch_subdir>  (765) 
/opt/xchem-fragalysis-2/maxwin/BulkDock/SCRATCH/505736/C2817-P163

>  <fragmenstein_runtime>  (765) 
16.293342351913452

>  <fragmenstein_outcome>  (765) 
too moved

>  <fragmenstein_mode>  (765) 
expansion

>  <fragmenstein_error>  (765) 


$$$$
C2823-P186
     RDKit          3D

 61 64  0  0  0  0  0  0  0  0999 V2000
   -2.0435   -8.7493   31.5921 O   0  0  0  0  0  0  0  0  0  0  0  0
   -1.1977   -8.0032   32.0545 C   0  0  0  0  0  0  0  0  0  0  0  0
   -1.1526   -7.6826   33.5074 C   0  0  0  0  0  0  0  0  0  0  0  0
   -0.2077   -6.8446   33.9411 C   0  0  0  0  0  0  0  0  0  0  0  0
    0.6868   -6.3001   33.0672 N   0  0  0  0  0  0  0  0  0  0  0  0
    0.5324   -6.5445   31.7284 C   0  0  0  0  0  0  0  0  0  0  0  0
    1.2824   -5.7305   30.7299 C   0  0  0  0  0  0  0  0  0  0  0  0
    0.3309   -4.6179   30.3486 C   0  0  0  0  0  0  0  0  0  0  0  0
    0.6069   -3.4877   31.2055 N   0  0  0  0  0  0  0  0  0  0  0  0
    1.3823   -2.1508   30.5426 S   0  0  0  0  0  0  0  0  0  0  0  0
    1.4986   -1.3067   31.7056 O   0  0  0  0  0  0  0  0  0  0  0  0
    2.4315   -2.8060   29.6198 N   0  0  0  0  0  0  0  0  0  0  0  0
    3.1261   -2.1253   28.4929 C   0  0  0  0  0  0  0  0  0  0  0  0
    4.2948   -2.9982   27.8973 C   0  0  0  0  0  0  0  0  0  0  0  0
    3.9813   -3.8984   26.6765 C   0  0  0  0  0  0  0  0  0  0  0  0
    3.4468   -3.0455   25.6525 O   0  0  0  0  0  0  0  0  0  0  0  0
    5.2727   -4.5808   26.1635 C   0  0  0  0  0  0  0  0  0  0  0  0
    5.1530   -6.1010   26.1141 C   0  0  0  0  0  0  0  0  0  0  0  0
    4.7276   -6.6560   27.4074 N   0  0  0  0  0  0  0  0  0  0  0  0
    5.7338   -6.4975   28.4763 C   0  0  0  0  0  0  0  0  0  0  0  0
    7.1365   -6.8399   28.0827 C   0  0  0  0  0  0  0  0  0  0  0  0
    8.1948   -5.8717   28.0314 C   0  0  0  0  0  0  0  0  0  0  0  0
    9.3927   -6.4202   27.6295 C   0  0  0  0  0  0  0  0  0  0  0  0
    9.2668   -8.0996   27.3451 S   0  0  0  0  0  0  0  0  0  0  0  0
    7.6065   -8.0981   27.7539 C   0  0  0  0  0  0  0  0  0  0  0  0
    3.4374   -6.0808   27.8365 C   0  0  0  0  0  0  0  0  0  0  0  0
    2.9036   -4.9372   26.9829 C   0  0  0  0  0  0  0  0  0  0  0  0
    0.1763   -1.4602   29.4857 C   0  0  0  0  0  0  0  0  0  0  0  0
   -0.5514   -1.9395   28.4180 C   0  0  0  0  0  0  0  0  0  0  0  0
   -1.5584   -1.0146   28.0767 C   0  0  0  0  0  0  0  0  0  0  0  0
   -1.5933    0.1302   28.7519 N   0  0  0  0  0  0  0  0  0  0  0  0
   -0.3763    0.1067   29.8706 S   0  0  0  0  0  0  0  0  0  0  0  0
   -0.3200   -7.3705   31.2213 N   0  0  0  0  0  0  0  0  0  0  0  0
   -1.8904   -8.1359   34.1528 H   0  0  0  0  0  0  0  0  0  0  0  0
   -0.1199   -6.5454   34.9807 H   0  0  0  0  0  0  0  0  0  0  0  0
    1.2121   -5.4840   33.3732 H   0  0  0  0  0  0  0  0  0  0  0  0
    1.4694   -6.3505   29.8502 H   0  0  0  0  0  0  0  0  0  0  0  0
    2.2414   -5.3892   31.1300 H   0  0  0  0  0  0  0  0  0  0  0  0
   -0.7193   -4.8935   30.4745 H   0  0  0  0  0  0  0  0  0  0  0  0
    0.4495   -4.3983   29.2864 H   0  0  0  0  0  0  0  0  0  0  0  0
   -0.2430   -3.1275   31.6230 H   0  0  0  0  0  0  0  0  0  0  0  0
    3.5646   -1.1978   28.8813 H   0  0  0  0  0  0  0  0  0  0  0  0
    2.4146   -1.8538   27.7080 H   0  0  0  0  0  0  0  0  0  0  0  0
    5.0530   -2.2731   27.5673 H   0  0  0  0  0  0  0  0  0  0  0  0
    4.7520   -3.5743   28.7074 H   0  0  0  0  0  0  0  0  0  0  0  0
    4.1462   -2.4399   25.3417 H   0  0  0  0  0  0  0  0  0  0  0  0
    5.5697   -4.2015   25.1850 H   0  0  0  0  0  0  0  0  0  0  0  0
    6.1123   -4.3092   26.8127 H   0  0  0  0  0  0  0  0  0  0  0  0
    6.0943   -6.5409   25.7672 H   0  0  0  0  0  0  0  0  0  0  0  0
    4.4279   -6.4074   25.3531 H   0  0  0  0  0  0  0  0  0  0  0  0
    5.4619   -7.1738   29.2818 H   0  0  0  0  0  0  0  0  0  0  0  0
    5.7253   -5.4871   28.8977 H   0  0  0  0  0  0  0  0  0  0  0  0
    8.0810   -4.8173   28.2515 H   0  0  0  0  0  0  0  0  0  0  0  0
   10.3356   -5.9118   27.4839 H   0  0  0  0  0  0  0  0  0  0  0  0
    7.0471   -9.0216   27.7144 H   0  0  0  0  0  0  0  0  0  0  0  0
    2.6959   -6.8840   27.8162 H   0  0  0  0  0  0  0  0  0  0  0  0
    3.4849   -5.7473   28.8791 H   0  0  0  0  0  0  0  0  0  0  0  0
    2.0340   -4.4736   27.4577 H   0  0  0  0  0  0  0  0  0  0  0  0
    2.5172   -5.3396   26.0412 H   0  0  0  0  0  0  0  0  0  0  0  0
   -0.4206   -2.9059   27.9508 H   0  0  0  0  0  0  0  0  0  0  0  0
   -2.3066   -1.1860   27.3183 H   0  0  0  0  0  0  0  0  0  0  0  0
  1  2  2  0
  2  3  1  0
  3  4  2  0
  4  5  1  0
  5  6  1  0
  6  7  1  0
  7  8  1  0
  8  9  1  0
  9 10  1  0
 10 11  2  0
 10 12  2  0
 12 13  1  0
 13 14  1  0
 14 15  1  0
 15 16  1  0
 15 17  1  0
 17 18  1  0
 18 19  1  0
 19 20  1  0
 20 21  1  0
 21 22  1  0
 22 23  2  0
 23 24  1  0
 24 25  1  0
 19 26  1  0
 26 27  1  0
 10 28  1  0
 28 29  2  0
 29 30  1  0
 30 31  2  0
 31 32  1  0
  6 33  2  0
 33  2  1  0
 27 15  1  0
 32 28  1  0
 25 21  2  0
  3 34  1  0
  4 35  1  0
  5 36  1  0
  7 37  1  0
  7 38  1  0
  8 39  1  0
  8 40  1  0
  9 41  1  0
 13 42  1  0
 13 43  1  0
 14 44  1  0
 14 45  1  0
 16 46  1  0
 17 47  1  0
 17 48  1  0
 18 49  1  0
 18 50  1  0
 20 51  1  0
 20 52  1  0
 22 53  1  0
 23 54  1  0
 25 55  1  0
 26 56  1  0
 26 57  1  0
 27 58  1  0
 27 59  1  0
 29 60  1  0
 30 61  1  0
M  END
>  <Energy>  (766) 
-84.095620200465234

>  <compound_id>  (766) 
2823

>  <target_id>  (766) 
1

>  <reference_id>  (766) 
186

>  <inspiration_ids>  (766) 
[186, 175]

>  <energy_score>  (766) 
-115.69612128297769

>  <distance_score>  (766) 
1.738131111386498

>  <path>  (766) 
/opt/xchem-fragalysis-2/maxwin/BulkDock/SCRATCH/505736/C2823-P186/C2823-P186.minimised.mol

>  <scratch_subdir>  (766) 
/opt/xchem-fragalysis-2/maxwin/BulkDock/SCRATCH/505736/C2823-P186

>  <fragmenstein_runtime>  (766) 
12.067471027374268

>  <fragmenstein_outcome>  (766) 
too moved

>  <fragmenstein_mode>  (766) 
expansion

>  <fragmenstein_error>  (766) 


$$$$
C2823-P175
     RDKit          3D

 61 64  0  0  0  0  0  0  0  0999 V2000
   -1.7655   -8.7406   31.5915 O   0  0  0  0  0  0  0  0  0  0  0  0
   -1.0503   -7.9516   32.1937 C   0  0  0  0  0  0  0  0  0  0  0  0
   -1.3064   -7.6028   33.6162 C   0  0  0  0  0  0  0  0  0  0  0  0
   -0.6744   -6.5453   34.1298 C   0  0  0  0  0  0  0  0  0  0  0  0
    0.2106   -5.8370   33.3756 N   0  0  0  0  0  0  0  0  0  0  0  0
    0.4747   -6.2406   32.0973 C   0  0  0  0  0  0  0  0  0  0  0  0
    1.3509   -5.3974   31.2215 C   0  0  0  0  0  0  0  0  0  0  0  0
    0.5065   -5.0148   30.0137 C   0  0  0  0  0  0  0  0  0  0  0  0
   -0.1033   -3.7076   30.1034 N   0  0  0  0  0  0  0  0  0  0  0  0
    0.8810   -2.3587   29.9103 S   0  0  0  0  0  0  0  0  0  0  0  0
    1.2336   -2.0128   31.2674 O   0  0  0  0  0  0  0  0  0  0  0  0
    1.7274   -2.7106   28.6644 N   0  0  0  0  0  0  0  0  0  0  0  0
    3.1616   -3.0782   28.7457 C   0  0  0  0  0  0  0  0  0  0  0  0
    3.8633   -3.4477   27.3735 C   0  0  0  0  0  0  0  0  0  0  0  0
    3.8111   -4.8921   26.7785 C   0  0  0  0  0  0  0  0  0  0  0  0
    2.6444   -4.9880   25.9598 O   0  0  0  0  0  0  0  0  0  0  0  0
    5.0374   -5.1788   25.8615 C   0  0  0  0  0  0  0  0  0  0  0  0
    5.9286   -6.3055   26.3767 C   0  0  0  0  0  0  0  0  0  0  0  0
    6.1802   -6.1957   27.8106 N   0  0  0  0  0  0  0  0  0  0  0  0
    7.1862   -5.1495   28.0827 C   0  0  0  0  0  0  0  0  0  0  0  0
    7.4852   -5.0339   29.5501 C   0  0  0  0  0  0  0  0  0  0  0  0
    7.8033   -6.1339   30.4055 C   0  0  0  0  0  0  0  0  0  0  0  0
    8.0186   -5.7539   31.7112 C   0  0  0  0  0  0  0  0  0  0  0  0
    7.8370   -4.0693   31.9221 S   0  0  0  0  0  0  0  0  0  0  0  0
    7.4899   -3.8471   30.2626 C   0  0  0  0  0  0  0  0  0  0  0  0
    4.9576   -6.1193   28.6071 C   0  0  0  0  0  0  0  0  0  0  0  0
    3.6788   -6.0058   27.8053 C   0  0  0  0  0  0  0  0  0  0  0  0
   -0.1635   -1.1167   29.2698 C   0  0  0  0  0  0  0  0  0  0  0  0
   -1.1480   -1.0977   28.3037 C   0  0  0  0  0  0  0  0  0  0  0  0
   -1.5959    0.2295   28.0906 C   0  0  0  0  0  0  0  0  0  0  0  0
   -1.0883    1.1672   28.8853 N   0  0  0  0  0  0  0  0  0  0  0  0
    0.0170    0.4526   29.8944 S   0  0  0  0  0  0  0  0  0  0  0  0
   -0.0299   -7.3003   31.5475 N   0  0  0  0  0  0  0  0  0  0  0  0
   -2.0340   -8.1805   34.1650 H   0  0  0  0  0  0  0  0  0  0  0  0
   -0.8504   -6.1928   35.1415 H   0  0  0  0  0  0  0  0  0  0  0  0
    0.5143   -4.9299   33.7186 H   0  0  0  0  0  0  0  0  0  0  0  0
    2.2006   -6.0070   30.9035 H   0  0  0  0  0  0  0  0  0  0  0  0
    1.7520   -4.5419   31.7705 H   0  0  0  0  0  0  0  0  0  0  0  0
   -0.3058   -5.7246   29.8396 H   0  0  0  0  0  0  0  0  0  0  0  0
    1.1203   -5.0675   29.1204 H   0  0  0  0  0  0  0  0  0  0  0  0
   -0.7439   -3.6457   29.3146 H   0  0  0  0  0  0  0  0  0  0  0  0
    3.3024   -3.8751   29.4785 H   0  0  0  0  0  0  0  0  0  0  0  0
    3.6916   -2.2019   29.1428 H   0  0  0  0  0  0  0  0  0  0  0  0
    3.5111   -2.7378   26.6140 H   0  0  0  0  0  0  0  0  0  0  0  0
    4.9172   -3.2031   27.5482 H   0  0  0  0  0  0  0  0  0  0  0  0
    2.7865   -5.7870   25.4248 H   0  0  0  0  0  0  0  0  0  0  0  0
    4.7221   -5.4803   24.8655 H   0  0  0  0  0  0  0  0  0  0  0  0
    5.6325   -4.2686   25.7196 H   0  0  0  0  0  0  0  0  0  0  0  0
    6.8679   -6.3295   25.8095 H   0  0  0  0  0  0  0  0  0  0  0  0
    5.4546   -7.2747   26.1719 H   0  0  0  0  0  0  0  0  0  0  0  0
    6.8702   -4.1749   27.6981 H   0  0  0  0  0  0  0  0  0  0  0  0
    8.1242   -5.4056   27.5731 H   0  0  0  0  0  0  0  0  0  0  0  0
    7.8724   -7.1630   30.0709 H   0  0  0  0  0  0  0  0  0  0  0  0
    8.2764   -6.3849   32.5507 H   0  0  0  0  0  0  0  0  0  0  0  0
    7.2997   -2.8501   29.8881 H   0  0  0  0  0  0  0  0  0  0  0  0
    4.9088   -7.0374   29.1935 H   0  0  0  0  0  0  0  0  0  0  0  0
    4.9845   -5.3051   29.3367 H   0  0  0  0  0  0  0  0  0  0  0  0
    2.8330   -5.8567   28.4707 H   0  0  0  0  0  0  0  0  0  0  0  0
    3.4584   -6.9582   27.3032 H   0  0  0  0  0  0  0  0  0  0  0  0
   -1.4695   -1.9573   27.7347 H   0  0  0  0  0  0  0  0  0  0  0  0
   -2.3144    0.5438   27.3437 H   0  0  0  0  0  0  0  0  0  0  0  0
  1  2  2  0
  2  3  1  0
  3  4  2  0
  4  5  1  0
  5  6  1  0
  6  7  1  0
  7  8  1  0
  8  9  1  0
  9 10  1  0
 10 11  2  0
 10 12  2  0
 12 13  1  0
 13 14  1  0
 14 15  1  0
 15 16  1  0
 15 17  1  0
 17 18  1  0
 18 19  1  0
 19 20  1  0
 20 21  1  0
 21 22  1  0
 22 23  2  0
 23 24  1  0
 24 25  1  0
 19 26  1  0
 26 27  1  0
 10 28  1  0
 28 29  2  0
 29 30  1  0
 30 31  2  0
 31 32  1  0
  6 33  2  0
 33  2  1  0
 27 15  1  0
 32 28  1  0
 25 21  2  0
  3 34  1  0
  4 35  1  0
  5 36  1  0
  7 37  1  0
  7 38  1  0
  8 39  1  0
  8 40  1  0
  9 41  1  0
 13 42  1  0
 13 43  1  0
 14 44  1  0
 14 45  1  0
 16 46  1  0
 17 47  1  0
 17 48  1  0
 18 49  1  0
 18 50  1  0
 20 51  1  0
 20 52  1  0
 22 53  1  0
 23 54  1  0
 25 55  1  0
 26 56  1  0
 26 57  1  0
 27 58  1  0
 27 59  1  0
 29 60  1  0
 30 61  1  0
M  END
>  <Energy>  (767) 
-80.760649394525856

>  <compound_id>  (767) 
2823

>  <target_id>  (767) 
1

>  <reference_id>  (767) 
175

>  <inspiration_ids>  (767) 
[186, 175]

>  <energy_score>  (767) 
-112.36115047704118

>  <distance_score>  (767) 
1.873905050329374

>  <path>  (767) 
/opt/xchem-fragalysis-2/maxwin/BulkDock/SCRATCH/505736/C2823-P175/C2823-P175.minimised.mol

>  <scratch_subdir>  (767) 
/opt/xchem-fragalysis-2/maxwin/BulkDock/SCRATCH/505736/C2823-P175

>  <fragmenstein_runtime>  (767) 
10.909018516540527

>  <fragmenstein_outcome>  (767) 
too moved

>  <fragmenstein_mode>  (767) 
expansion

>  <fragmenstein_error>  (767) 


$$$$
C2824-P186
     RDKit          3D

 51 54  0  0  0  0  0  0  0  0999 V2000
    5.2278   -1.1564   25.4178 C   0  0  0  0  0  0  0  0  0  0  0  0
    5.0939   -2.5500   25.7385 N   0  0  0  0  0  0  0  0  0  0  0  0
    6.0877   -3.5264   26.4191 C   0  0  0  0  0  0  0  0  0  0  0  0
    7.1948   -3.3675   26.7535 O   0  0  0  0  0  0  0  0  0  0  0  0
    5.3685   -4.8655   26.5842 C   0  0  0  0  0  0  0  0  0  0  0  0
    4.4451   -4.9497   27.7781 C   0  0  0  0  0  0  0  0  0  0  0  0
    3.3794   -5.8388   27.7687 C   0  0  0  0  0  0  0  0  0  0  0  0
    2.5811   -5.9724   28.9058 C   0  0  0  0  0  0  0  0  0  0  0  0
    2.8005   -5.2351   30.0854 C   0  0  0  0  0  0  0  0  0  0  0  0
    1.7887   -5.2518   31.2092 C   0  0  0  0  0  0  0  0  0  0  0  0
    0.8400   -4.3745   30.8728 C   0  0  0  0  0  0  0  0  0  0  0  0
    1.0148   -2.9262   30.8492 C   0  0  0  0  0  0  0  0  0  0  0  0
    0.2911   -2.4272   32.0247 N   0  0  0  0  0  0  0  0  0  0  0  0
   -1.3558   -2.1237   31.8548 S   0  0  0  0  0  0  0  0  0  0  0  0
   -1.7349   -1.2372   32.9254 O   0  0  0  0  0  0  0  0  0  0  0  0
   -2.0481   -3.3607   31.5664 O   0  0  0  0  0  0  0  0  0  0  0  0
   -1.4173   -1.2120   30.3664 C   0  0  0  0  0  0  0  0  0  0  0  0
   -1.5691   -1.5867   29.0493 C   0  0  0  0  0  0  0  0  0  0  0  0
   -1.0752   -0.5635   28.2161 C   0  0  0  0  0  0  0  0  0  0  0  0
   -0.7142    0.5750   28.7971 N   0  0  0  0  0  0  0  0  0  0  0  0
   -0.8701    0.3922   30.4329 S   0  0  0  0  0  0  0  0  0  0  0  0
   -0.2063   -5.0604   30.0842 C   0  0  0  0  0  0  0  0  0  0  0  0
   -0.5098   -6.3220   30.1468 N   0  0  0  0  0  0  0  0  0  0  0  0
    0.1704   -7.0372   31.0870 N   0  0  0  0  0  0  0  0  0  0  0  0
   -0.6280   -7.6762   32.0600 C   0  0  0  0  0  0  0  0  0  0  0  0
   -1.6811   -8.2792   31.9054 O   0  0  0  0  0  0  0  0  0  0  0  0
   -0.0047   -7.3544   33.3946 C   0  0  0  0  0  0  0  0  0  0  0  0
   -0.5023   -7.7608   34.6025 N   0  0  0  0  0  0  0  0  0  0  0  0
    1.0513   -6.5955   33.0876 C   0  0  0  0  0  0  0  0  0  0  0  0
    1.3027   -6.4570   31.7284 N   0  0  0  0  0  0  0  0  0  0  0  0
    3.9023   -4.3761   30.1028 C   0  0  0  0  0  0  0  0  0  0  0  0
    4.7186   -4.2478   28.9689 C   0  0  0  0  0  0  0  0  0  0  0  0
    4.3755   -0.6169   25.8358 H   0  0  0  0  0  0  0  0  0  0  0  0
    6.1613   -0.7752   25.8373 H   0  0  0  0  0  0  0  0  0  0  0  0
    5.2420   -1.0557   24.3312 H   0  0  0  0  0  0  0  0  0  0  0  0
    4.1852   -2.9905   25.6625 H   0  0  0  0  0  0  0  0  0  0  0  0
    6.1338   -5.6461   26.6798 H   0  0  0  0  0  0  0  0  0  0  0  0
    4.8169   -5.0848   25.6652 H   0  0  0  0  0  0  0  0  0  0  0  0
    3.1598   -6.4267   26.8804 H   0  0  0  0  0  0  0  0  0  0  0  0
    1.7516   -6.6666   28.8639 H   0  0  0  0  0  0  0  0  0  0  0  0
    0.7299   -2.4793   29.9001 H   0  0  0  0  0  0  0  0  0  0  0  0
    2.0576   -2.6262   30.9955 H   0  0  0  0  0  0  0  0  0  0  0  0
    0.7473   -1.6589   32.5206 H   0  0  0  0  0  0  0  0  0  0  0  0
   -1.8764   -2.5673   28.7151 H   0  0  0  0  0  0  0  0  0  0  0  0
   -0.9478   -0.6563   27.1512 H   0  0  0  0  0  0  0  0  0  0  0  0
   -0.7292   -4.4350   29.3459 H   0  0  0  0  0  0  0  0  0  0  0  0
   -0.6935   -6.9878   35.2355 H   0  0  0  0  0  0  0  0  0  0  0  0
   -1.3174   -8.3748   34.4864 H   0  0  0  0  0  0  0  0  0  0  0  0
    1.7249   -6.1215   33.7888 H   0  0  0  0  0  0  0  0  0  0  0  0
    4.1444   -3.7965   30.9912 H   0  0  0  0  0  0  0  0  0  0  0  0
    5.5840   -3.5861   29.0323 H   0  0  0  0  0  0  0  0  0  0  0  0
  1  2  1  0
  2  3  1  0
  3  4  2  0
  3  5  1  0
  5  6  1  0
  6  7  2  0
  7  8  1  0
  8  9  2  0
  9 10  1  0
 10 11  2  0
 11 12  1  0
 12 13  1  0
 13 14  1  0
 14 15  2  0
 14 16  2  0
 14 17  1  0
 17 18  2  0
 18 19  1  0
 19 20  2  0
 20 21  1  0
 11 22  1  0
 22 23  2  0
 23 24  1  0
 24 25  1  0
 25 26  2  0
 25 27  1  0
 27 28  1  0
 27 29  2  0
 29 30  1  0
  9 31  1  0
 31 32  2  0
 32  6  1  0
 30 10  1  0
 21 17  1  0
 30 24  1  0
  1 33  1  0
  1 34  1  0
  1 35  1  0
  2 36  1  0
  5 37  1  0
  5 38  1  0
  7 39  1  0
  8 40  1  0
 12 41  1  0
 12 42  1  0
 13 43  1  0
 18 44  1  0
 19 45  1  0
 22 46  1  0
 28 47  1  0
 28 48  1  0
 29 49  1  0
 31 50  1  0
 32 51  1  0
M  END
>  <Energy>  (768) 
115.1071067631018

>  <compound_id>  (768) 
2824

>  <target_id>  (768) 
1

>  <reference_id>  (768) 
186

>  <inspiration_ids>  (768) 
[186, 177]

>  <energy_score>  (768) 
3.5677005190572117

>  <distance_score>  (768) 
3.269810959149375

>  <path>  (768) 
/opt/xchem-fragalysis-2/maxwin/BulkDock/SCRATCH/505736/C2824-P186/C2824-P186.minimised.mol

>  <scratch_subdir>  (768) 
/opt/xchem-fragalysis-2/maxwin/BulkDock/SCRATCH/505736/C2824-P186

>  <fragmenstein_runtime>  (768) 
10.331638813018799

>  <fragmenstein_outcome>  (768) 
too moved

>  <fragmenstein_mode>  (768) 
expansion

>  <fragmenstein_error>  (768) 


$$$$
C2824-P177
     RDKit          3D

 51 54  0  0  0  0  0  0  0  0999 V2000
   -0.7236   -2.8402   25.9077 C   0  0  0  0  0  0  0  0  0  0  0  0
    0.5237   -2.4375   26.4873 N   0  0  0  0  0  0  0  0  0  0  0  0
    1.8777   -2.6068   26.0260 C   0  0  0  0  0  0  0  0  0  0  0  0
    2.3024   -3.0565   25.0039 O   0  0  0  0  0  0  0  0  0  0  0  0
    2.8634   -2.1303   27.1131 C   0  0  0  0  0  0  0  0  0  0  0  0
    2.5862   -2.7827   28.4491 C   0  0  0  0  0  0  0  0  0  0  0  0
    2.6836   -2.0882   29.6512 C   0  0  0  0  0  0  0  0  0  0  0  0
    2.2754   -2.6912   30.8571 C   0  0  0  0  0  0  0  0  0  0  0  0
    1.6775   -3.9670   30.9058 C   0  0  0  0  0  0  0  0  0  0  0  0
    1.1765   -4.5825   32.1998 C   0  0  0  0  0  0  0  0  0  0  0  0
    0.9936   -3.8270   33.3127 C   0  0  0  0  0  0  0  0  0  0  0  0
    0.2414   -2.5301   33.3377 C   0  0  0  0  0  0  0  0  0  0  0  0
   -1.0788   -2.8979   32.8191 N   0  0  0  0  0  0  0  0  0  0  0  0
   -2.0863   -1.7335   32.2076 S   0  0  0  0  0  0  0  0  0  0  0  0
   -2.2757   -0.7286   33.2275 O   0  0  0  0  0  0  0  0  0  0  0  0
   -3.1956   -2.4846   31.6618 O   0  0  0  0  0  0  0  0  0  0  0  0
   -1.3281   -0.9436   30.8351 C   0  0  0  0  0  0  0  0  0  0  0  0
   -1.3069   -1.1529   29.4686 C   0  0  0  0  0  0  0  0  0  0  0  0
   -0.5941   -0.1017   28.8232 C   0  0  0  0  0  0  0  0  0  0  0  0
   -0.0178    0.8008   29.6091 N   0  0  0  0  0  0  0  0  0  0  0  0
   -0.3968    0.4442   31.1763 S   0  0  0  0  0  0  0  0  0  0  0  0
    0.8863   -4.5710   34.5928 C   0  0  0  0  0  0  0  0  0  0  0  0
    0.5369   -5.8040   34.7209 N   0  0  0  0  0  0  0  0  0  0  0  0
    0.3096   -6.4326   33.5460 N   0  0  0  0  0  0  0  0  0  0  0  0
   -0.8487   -7.2073   33.3746 C   0  0  0  0  0  0  0  0  0  0  0  0
   -1.6918   -7.5630   34.1820 O   0  0  0  0  0  0  0  0  0  0  0  0
   -0.9561   -7.4456   31.9058 C   0  0  0  0  0  0  0  0  0  0  0  0
   -1.8063   -8.3232   31.2792 N   0  0  0  0  0  0  0  0  0  0  0  0
   -0.1132   -6.5573   31.3838 C   0  0  0  0  0  0  0  0  0  0  0  0
    0.7259   -5.9231   32.2794 N   0  0  0  0  0  0  0  0  0  0  0  0
    1.7216   -4.6585   29.6916 C   0  0  0  0  0  0  0  0  0  0  0  0
    2.1870   -4.1090   28.4992 C   0  0  0  0  0  0  0  0  0  0  0  0
   -1.4770   -2.0768   26.1119 H   0  0  0  0  0  0  0  0  0  0  0  0
   -1.0079   -3.7756   26.3829 H   0  0  0  0  0  0  0  0  0  0  0  0
   -0.6066   -2.9964   24.8334 H   0  0  0  0  0  0  0  0  0  0  0  0
    0.5398   -2.0989   27.4402 H   0  0  0  0  0  0  0  0  0  0  0  0
    3.8850   -2.3748   26.8011 H   0  0  0  0  0  0  0  0  0  0  0  0
    2.7787   -1.0397   27.1840 H   0  0  0  0  0  0  0  0  0  0  0  0
    3.0652   -1.0677   29.6664 H   0  0  0  0  0  0  0  0  0  0  0  0
    2.4620   -2.1152   31.7583 H   0  0  0  0  0  0  0  0  0  0  0  0
    0.7195   -1.7477   32.7584 H   0  0  0  0  0  0  0  0  0  0  0  0
    0.1274   -2.1533   34.3603 H   0  0  0  0  0  0  0  0  0  0  0  0
   -1.6250   -3.4891   33.4636 H   0  0  0  0  0  0  0  0  0  0  0  0
   -1.8139   -1.9677   28.9668 H   0  0  0  0  0  0  0  0  0  0  0  0
   -0.4649    0.0276   27.7562 H   0  0  0  0  0  0  0  0  0  0  0  0
    1.0906   -3.9829   35.5035 H   0  0  0  0  0  0  0  0  0  0  0  0
   -2.4989   -8.6739   31.9627 H   0  0  0  0  0  0  0  0  0  0  0  0
   -1.2472   -9.1551   31.0454 H   0  0  0  0  0  0  0  0  0  0  0  0
   -0.1181   -6.3675   30.3266 H   0  0  0  0  0  0  0  0  0  0  0  0
    1.4229   -5.6808   29.5875 H   0  0  0  0  0  0  0  0  0  0  0  0
    2.1779   -4.7251   27.5993 H   0  0  0  0  0  0  0  0  0  0  0  0
  1  2  1  0
  2  3  1  0
  3  4  2  0
  3  5  1  0
  5  6  1  0
  6  7  2  0
  7  8  1  0
  8  9  2  0
  9 10  1  0
 10 11  2  0
 11 12  1  0
 12 13  1  0
 13 14  1  0
 14 15  2  0
 14 16  2  0
 14 17  1  0
 17 18  2  0
 18 19  1  0
 19 20  2  0
 20 21  1  0
 11 22  1  0
 22 23  2  0
 23 24  1  0
 24 25  1  0
 25 26  2  0
 25 27  1  0
 27 28  1  0
 27 29  2  0
 29 30  1  0
  9 31  1  0
 31 32  2  0
 32  6  1  0
 30 10  1  0
 21 17  1  0
 30 24  1  0
  1 33  1  0
  1 34  1  0
  1 35  1  0
  2 36  1  0
  5 37  1  0
  5 38  1  0
  7 39  1  0
  8 40  1  0
 12 41  1  0
 12 42  1  0
 13 43  1  0
 18 44  1  0
 19 45  1  0
 22 46  1  0
 28 47  1  0
 28 48  1  0
 29 49  1  0
 31 50  1  0
 32 51  1  0
M  END
>  <Energy>  (769) 
82.26479435184207

>  <compound_id>  (769) 
2824

>  <target_id>  (769) 
1

>  <reference_id>  (769) 
177

>  <inspiration_ids>  (769) 
[186, 177]

>  <energy_score>  (769) 
-13.629686263219924

>  <distance_score>  (769) 
3.029291862309961

>  <path>  (769) 
/opt/xchem-fragalysis-2/maxwin/BulkDock/SCRATCH/505736/C2824-P177/C2824-P177.minimised.mol

>  <scratch_subdir>  (769) 
/opt/xchem-fragalysis-2/maxwin/BulkDock/SCRATCH/505736/C2824-P177

>  <fragmenstein_runtime>  (769) 
13.501600980758667

>  <fragmenstein_outcome>  (769) 
too moved

>  <fragmenstein_mode>  (769) 
expansion

>  <fragmenstein_error>  (769) 


$$$$
C2857-P186
     RDKit          3D

 54 57  0  0  0  0  0  0  0  0999 V2000
    3.1131   -1.5493   36.5411 C   0  0  0  0  0  0  0  0  0  0  0  0
    2.8594   -2.5454   35.0894 S   0  0  0  0  0  0  0  0  0  0  0  0
    4.0273   -3.3673   34.8722 O   0  0  0  0  0  0  0  0  0  0  0  0
    2.3070   -1.7144   34.0379 O   0  0  0  0  0  0  0  0  0  0  0  0
    1.5859   -3.5261   35.5866 N   0  0  0  0  0  0  0  0  0  0  0  0
    1.7072   -5.0062   35.4744 C   0  0  0  0  0  0  0  0  0  0  0  0
    0.4930   -5.6287   36.1721 C   0  0  0  0  0  0  0  0  0  0  0  0
   -0.8081   -5.3931   35.4035 C   0  0  0  0  0  0  0  0  0  0  0  0
   -0.5890   -5.1532   33.9048 C   0  0  0  0  0  0  0  0  0  0  0  0
    0.5653   -5.9610   33.3028 C   0  0  0  0  0  0  0  0  0  0  0  0
    0.3318   -7.4656   33.7277 C   0  0  0  0  0  0  0  0  0  0  0  0
   -0.4470   -8.0739   32.5943 C   0  0  0  0  0  0  0  0  0  0  0  0
    0.2001   -8.1782   31.4758 N   0  0  0  0  0  0  0  0  0  0  0  0
   -0.0828   -6.9917   30.9434 N   0  0  0  0  0  0  0  0  0  0  0  0
   -1.4844   -6.8169   31.2772 N   0  0  0  0  0  0  0  0  0  0  0  0
   -1.7203   -7.6601   32.3905 N   0  0  0  0  0  0  0  0  0  0  0  0
    0.7608   -5.9418   31.6630 C   0  0  0  0  0  0  0  0  0  0  0  0
    0.7315   -4.7574   30.6918 C   0  0  0  0  0  0  0  0  0  0  0  0
    1.3211   -3.4477   31.1251 C   0  0  0  0  0  0  0  0  0  0  0  0
    0.5134   -2.7796   32.1419 N   0  0  0  0  0  0  0  0  0  0  0  0
   -1.0851   -2.3416   31.8494 S   0  0  0  0  0  0  0  0  0  0  0  0
   -1.4427   -1.3929   32.8774 O   0  0  0  0  0  0  0  0  0  0  0  0
   -1.8733   -3.5430   31.6353 O   0  0  0  0  0  0  0  0  0  0  0  0
   -1.1074   -1.5215   30.3175 C   0  0  0  0  0  0  0  0  0  0  0  0
   -1.2305   -1.9636   29.0189 C   0  0  0  0  0  0  0  0  0  0  0  0
   -1.0545   -0.8809   28.1308 C   0  0  0  0  0  0  0  0  0  0  0  0
   -0.8559    0.3188   28.6695 N   0  0  0  0  0  0  0  0  0  0  0  0
   -0.8259    0.1507   30.3158 S   0  0  0  0  0  0  0  0  0  0  0  0
    1.8610   -5.4591   34.0014 C   0  0  0  0  0  0  0  0  0  0  0  0
    3.9138   -0.8387   36.3257 H   0  0  0  0  0  0  0  0  0  0  0  0
    2.1904   -1.0121   36.7680 H   0  0  0  0  0  0  0  0  0  0  0  0
    3.4044   -2.1990   37.3684 H   0  0  0  0  0  0  0  0  0  0  0  0
    0.6934   -3.1351   35.2772 H   0  0  0  0  0  0  0  0  0  0  0  0
    2.6049   -5.2974   36.0345 H   0  0  0  0  0  0  0  0  0  0  0  0
    0.3849   -5.2226   37.1861 H   0  0  0  0  0  0  0  0  0  0  0  0
    0.6693   -6.7014   36.3094 H   0  0  0  0  0  0  0  0  0  0  0  0
   -1.3111   -4.5115   35.8218 H   0  0  0  0  0  0  0  0  0  0  0  0
   -1.4992   -6.2251   35.5777 H   0  0  0  0  0  0  0  0  0  0  0  0
   -1.5254   -5.3106   33.3914 H   0  0  0  0  0  0  0  0  0  0  0  0
   -0.3896   -4.0931   33.8058 H   0  0  0  0  0  0  0  0  0  0  0  0
    1.2906   -7.9450   33.8790 H   0  0  0  0  0  0  0  0  0  0  0  0
   -0.2473   -7.6411   34.6332 H   0  0  0  0  0  0  0  0  0  0  0  0
   -1.6770   -5.8316   31.4887 H   0  0  0  0  0  0  0  0  0  0  0  0
   -2.1264   -7.1999   33.1936 H   0  0  0  0  0  0  0  0  0  0  0  0
    1.7951   -6.3006   31.5582 H   0  0  0  0  0  0  0  0  0  0  0  0
   -0.2718   -4.5957   30.2919 H   0  0  0  0  0  0  0  0  0  0  0  0
    1.3038   -5.0671   29.8025 H   0  0  0  0  0  0  0  0  0  0  0  0
    1.4444   -2.7756   30.2689 H   0  0  0  0  0  0  0  0  0  0  0  0
    2.3318   -3.5976   31.5178 H   0  0  0  0  0  0  0  0  0  0  0  0
    1.0277   -2.0559   32.6728 H   0  0  0  0  0  0  0  0  0  0  0  0
   -1.4005   -2.9916   28.7269 H   0  0  0  0  0  0  0  0  0  0  0  0
   -1.0641   -0.9658   27.0552 H   0  0  0  0  0  0  0  0  0  0  0  0
    2.6159   -6.2558   33.9706 H   0  0  0  0  0  0  0  0  0  0  0  0
    2.2955   -4.6541   33.4087 H   0  0  0  0  0  0  0  0  0  0  0  0
  1  2  1  0
  2  3  2  0
  2  4  2  0
  2  5  1  0
  5  6  1  0
  6  7  1  0
  7  8  1  0
  8  9  1  0
  9 10  1  0
 10 11  1  0
 11 12  1  0
 12 13  2  0
 13 14  1  0
 14 15  1  0
 15 16  1  0
 14 17  1  0
 17 18  1  0
 18 19  1  0
 19 20  1  0
 20 21  1  0
 21 22  2  0
 21 23  2  0
 21 24  1  0
 24 25  2  0
 25 26  1  0
 26 27  2  0
 27 28  1  0
 10 29  1  0
 29  6  1  0
 17 10  1  0
 28 24  1  0
 16 12  1  0
  1 30  1  0
  1 31  1  0
  1 32  1  0
  5 33  1  0
  6 34  1  0
  7 35  1  0
  7 36  1  0
  8 37  1  0
  8 38  1  0
  9 39  1  0
  9 40  1  0
 11 41  1  0
 11 42  1  0
 15 43  1  0
 16 44  1  0
 17 45  1  0
 18 46  1  0
 18 47  1  0
 19 48  1  0
 19 49  1  0
 20 50  1  0
 25 51  1  0
 26 52  1  0
 29 53  1  0
 29 54  1  0
M  END
>  <Energy>  (770) 
1.6359785829721138

>  <compound_id>  (770) 
2857

>  <target_id>  (770) 
1

>  <reference_id>  (770) 
186

>  <inspiration_ids>  (770) 
[186, 180]

>  <energy_score>  (770) 
-209.86199856632868

>  <distance_score>  (770) 
1.7537988714211517

>  <path>  (770) 
/opt/xchem-fragalysis-2/maxwin/BulkDock/SCRATCH/505736/C2857-P186/C2857-P186.minimised.mol

>  <scratch_subdir>  (770) 
/opt/xchem-fragalysis-2/maxwin/BulkDock/SCRATCH/505736/C2857-P186

>  <fragmenstein_runtime>  (770) 
6.302375555038452

>  <fragmenstein_outcome>  (770) 
too moved

>  <fragmenstein_mode>  (770) 
expansion

>  <fragmenstein_error>  (770) 


$$$$
C2857-P180
     RDKit          3D

 54 57  0  0  0  0  0  0  0  0999 V2000
    2.7451   -2.7337   37.5576 C   0  0  0  0  0  0  0  0  0  0  0  0
    3.2721   -3.2681   35.9422 S   0  0  0  0  0  0  0  0  0  0  0  0
    4.7174   -3.2237   35.9105 O   0  0  0  0  0  0  0  0  0  0  0  0
    2.4801   -2.6031   34.9317 O   0  0  0  0  0  0  0  0  0  0  0  0
    2.8978   -4.9037   35.9739 N   0  0  0  0  0  0  0  0  0  0  0  0
    1.6842   -5.4899   35.3741 C   0  0  0  0  0  0  0  0  0  0  0  0
    0.4069   -4.9067   35.9623 C   0  0  0  0  0  0  0  0  0  0  0  0
   -0.8537   -5.3541   35.2444 C   0  0  0  0  0  0  0  0  0  0  0  0
   -0.7036   -5.2186   33.7286 C   0  0  0  0  0  0  0  0  0  0  0  0
    0.4999   -5.9803   33.1376 C   0  0  0  0  0  0  0  0  0  0  0  0
    0.3682   -7.4895   33.5661 C   0  0  0  0  0  0  0  0  0  0  0  0
   -0.3490   -8.1603   32.4273 C   0  0  0  0  0  0  0  0  0  0  0  0
    0.3214   -8.1972   31.3166 N   0  0  0  0  0  0  0  0  0  0  0  0
   -0.0751   -7.0442   30.7830 N   0  0  0  0  0  0  0  0  0  0  0  0
   -1.4985   -6.9961   31.1254 N   0  0  0  0  0  0  0  0  0  0  0  0
   -1.6582   -7.8833   32.2148 N   0  0  0  0  0  0  0  0  0  0  0  0
    0.6953   -5.9393   31.5045 C   0  0  0  0  0  0  0  0  0  0  0  0
    0.5890   -4.7390   30.5646 C   0  0  0  0  0  0  0  0  0  0  0  0
    1.2473   -3.4529   30.9850 C   0  0  0  0  0  0  0  0  0  0  0  0
    0.4847   -2.7455   32.0048 N   0  0  0  0  0  0  0  0  0  0  0  0
   -1.0699   -2.1775   31.7019 S   0  0  0  0  0  0  0  0  0  0  0  0
   -1.3636   -1.2405   32.7608 O   0  0  0  0  0  0  0  0  0  0  0  0
   -1.9364   -3.3178   31.4621 O   0  0  0  0  0  0  0  0  0  0  0  0
   -1.0152   -1.2879   30.1952 C   0  0  0  0  0  0  0  0  0  0  0  0
   -1.2055   -1.6204   28.8682 C   0  0  0  0  0  0  0  0  0  0  0  0
   -1.0526   -0.4692   28.0490 C   0  0  0  0  0  0  0  0  0  0  0  0
   -0.6870    0.6549   28.6584 N   0  0  0  0  0  0  0  0  0  0  0  0
   -0.5939    0.3579   30.2861 S   0  0  0  0  0  0  0  0  0  0  0  0
    1.7641   -5.4262   33.8389 C   0  0  0  0  0  0  0  0  0  0  0  0
    3.0241   -1.6834   37.6685 H   0  0  0  0  0  0  0  0  0  0  0  0
    1.6636   -2.8370   37.6433 H   0  0  0  0  0  0  0  0  0  0  0  0
    3.2579   -3.3330   38.3123 H   0  0  0  0  0  0  0  0  0  0  0  0
    3.7430   -5.4779   35.9654 H   0  0  0  0  0  0  0  0  0  0  0  0
    1.7113   -6.5482   35.6662 H   0  0  0  0  0  0  0  0  0  0  0  0
    0.4321   -3.8127   35.9116 H   0  0  0  0  0  0  0  0  0  0  0  0
    0.3351   -5.1531   37.0288 H   0  0  0  0  0  0  0  0  0  0  0  0
   -1.6687   -4.7079   35.5870 H   0  0  0  0  0  0  0  0  0  0  0  0
   -1.1444   -6.3610   35.5532 H   0  0  0  0  0  0  0  0  0  0  0  0
   -1.6446   -5.5054   33.2793 H   0  0  0  0  0  0  0  0  0  0  0  0
   -0.5943   -4.1556   33.5426 H   0  0  0  0  0  0  0  0  0  0  0  0
    1.3639   -7.8977   33.7002 H   0  0  0  0  0  0  0  0  0  0  0  0
   -0.1776   -7.6896   34.4865 H   0  0  0  0  0  0  0  0  0  0  0  0
   -1.7455   -6.0392   31.3919 H   0  0  0  0  0  0  0  0  0  0  0  0
   -2.1338   -7.5019   33.0206 H   0  0  0  0  0  0  0  0  0  0  0  0
    1.7512   -6.2339   31.3859 H   0  0  0  0  0  0  0  0  0  0  0  0
   -0.4428   -4.5664   30.2574 H   0  0  0  0  0  0  0  0  0  0  0  0
    1.0859   -5.0317   29.6260 H   0  0  0  0  0  0  0  0  0  0  0  0
    1.3914   -2.7921   30.1233 H   0  0  0  0  0  0  0  0  0  0  0  0
    2.2532   -3.6517   31.3703 H   0  0  0  0  0  0  0  0  0  0  0  0
    1.0157   -2.1120   32.6135 H   0  0  0  0  0  0  0  0  0  0  0  0
   -1.4874   -2.6022   28.5120 H   0  0  0  0  0  0  0  0  0  0  0  0
   -1.2083   -0.4291   26.9788 H   0  0  0  0  0  0  0  0  0  0  0  0
    2.6546   -5.9781   33.5081 H   0  0  0  0  0  0  0  0  0  0  0  0
    1.9265   -4.4007   33.5115 H   0  0  0  0  0  0  0  0  0  0  0  0
  1  2  1  0
  2  3  2  0
  2  4  2  0
  2  5  1  0
  5  6  1  0
  6  7  1  0
  7  8  1  0
  8  9  1  0
  9 10  1  0
 10 11  1  0
 11 12  1  0
 12 13  2  0
 13 14  1  0
 14 15  1  0
 15 16  1  0
 14 17  1  0
 17 18  1  0
 18 19  1  0
 19 20  1  0
 20 21  1  0
 21 22  2  0
 21 23  2  0
 21 24  1  0
 24 25  2  0
 25 26  1  0
 26 27  2  0
 27 28  1  0
 10 29  1  0
 29  6  1  0
 17 10  1  0
 28 24  1  0
 16 12  1  0
  1 30  1  0
  1 31  1  0
  1 32  1  0
  5 33  1  0
  6 34  1  0
  7 35  1  0
  7 36  1  0
  8 37  1  0
  8 38  1  0
  9 39  1  0
  9 40  1  0
 11 41  1  0
 11 42  1  0
 15 43  1  0
 16 44  1  0
 17 45  1  0
 18 46  1  0
 18 47  1  0
 19 48  1  0
 19 49  1  0
 20 50  1  0
 25 51  1  0
 26 52  1  0
 29 53  1  0
 29 54  1  0
M  END
>  <Energy>  (771) 
-1.0066280446318077

>  <compound_id>  (771) 
2857

>  <target_id>  (771) 
1

>  <reference_id>  (771) 
180

>  <inspiration_ids>  (771) 
[186, 180]

>  <energy_score>  (771) 
-212.5046051939342

>  <distance_score>  (771) 
1.7564971992447875

>  <path>  (771) 
/opt/xchem-fragalysis-2/maxwin/BulkDock/SCRATCH/505736/C2857-P180/C2857-P180.minimised.mol

>  <scratch_subdir>  (771) 
/opt/xchem-fragalysis-2/maxwin/BulkDock/SCRATCH/505736/C2857-P180

>  <fragmenstein_runtime>  (771) 
5.5953052043914795

>  <fragmenstein_outcome>  (771) 
too moved

>  <fragmenstein_mode>  (771) 
expansion

>  <fragmenstein_error>  (771) 


$$$$
C2838-P186
     RDKit          2D

  0  0  0  0  0  0  0  0  0  0999 V2000
M  END
>  <compound_id>  (772) 
2838

>  <target_id>  (772) 
1

>  <reference_id>  (772) 
186

>  <inspiration_ids>  (772) 
[186, 200]

>  <energy_score>  (772) 
nan

>  <distance_score>  (772) 
nan

>  <path>  (772) 
/opt/xchem-fragalysis-2/maxwin/BulkDock/SCRATCH/505736/C2838-P186/C2838-P186.minimised.mol

>  <scratch_subdir>  (772) 
/opt/xchem-fragalysis-2/maxwin/BulkDock/SCRATCH/505736/C2838-P186

>  <fragmenstein_runtime>  (772) 
0.4758615493774414

>  <fragmenstein_outcome>  (772) 
too distant

>  <fragmenstein_mode>  (772) 
expansion

>  <fragmenstein_error>  (772) 
DistanceError: hit0+hit1

$$$$
C2839-P186
     RDKit          2D

  0  0  0  0  0  0  0  0  0  0999 V2000
M  END
>  <compound_id>  (773) 
2839

>  <target_id>  (773) 
1

>  <reference_id>  (773) 
186

>  <inspiration_ids>  (773) 
[186, 202]

>  <energy_score>  (773) 
nan

>  <distance_score>  (773) 
nan

>  <path>  (773) 
/opt/xchem-fragalysis-2/maxwin/BulkDock/SCRATCH/505736/C2839-P186/C2839-P186.minimised.mol

>  <scratch_subdir>  (773) 
/opt/xchem-fragalysis-2/maxwin/BulkDock/SCRATCH/505736/C2839-P186

>  <fragmenstein_runtime>  (773) 
0.7267193794250488

>  <fragmenstein_outcome>  (773) 
crashed

>  <fragmenstein_mode>  (773) 
expansion

>  <fragmenstein_error>  (773) 
PoisonError: None has poison atoms [1, 2]

$$$$
C2863-P187
     RDKit          3D

 45 48  0  0  0  0  0  0  0  0999 V2000
   -1.7899   -1.0445   32.9816 O   0  0  0  0  0  0  0  0  0  0  0  0
   -1.7072   -2.0289   31.9261 S   0  0  0  0  0  0  0  0  0  0  0  0
   -2.8024   -2.9388   31.6539 O   0  0  0  0  0  0  0  0  0  0  0  0
   -0.4179   -3.0135   32.2842 N   0  0  0  0  0  0  0  0  0  0  0  0
    0.9136   -2.4601   32.5127 C   0  0  0  0  0  0  0  0  0  0  0  0
    2.0212   -3.4434   32.1365 C   0  0  0  0  0  0  0  0  0  0  0  0
    1.4067   -4.6759   31.5715 C   0  0  0  0  0  0  0  0  0  0  0  0
    1.2060   -5.6393   32.4385 N   0  0  0  0  0  0  0  0  0  0  0  0
    0.4778   -6.6900   32.0346 N   0  0  0  0  0  0  0  0  0  0  0  0
   -0.2700   -7.3450   33.0358 N   0  0  0  0  0  0  0  0  0  0  0  0
   -1.1872   -8.1636   32.2420 C   0  0  0  0  0  0  0  0  0  0  0  0
   -1.2748   -7.6224   30.8870 N   0  0  0  0  0  0  0  0  0  0  0  0
   -0.2783   -6.6606   30.8828 C   0  0  0  0  0  0  0  0  0  0  0  0
   -0.0823   -5.6926   29.9835 C   0  0  0  0  0  0  0  0  0  0  0  0
    1.0009   -4.6472   30.0766 C   0  0  0  0  0  0  0  0  0  0  0  0
    2.2456   -5.0362   29.2288 C   0  0  0  0  0  0  0  0  0  0  0  0
    2.3910   -4.2561   27.9765 N   0  0  0  0  0  0  0  0  0  0  0  0
    2.5946   -2.8459   28.3395 C   0  0  0  0  0  0  0  0  0  0  0  0
    1.3803   -2.3044   29.0831 C   0  0  0  0  0  0  0  0  0  0  0  0
    0.4283   -3.3245   29.5949 N   0  0  0  0  0  0  0  0  0  0  0  0
   -1.4810   -1.1301   30.4284 C   0  0  0  0  0  0  0  0  0  0  0  0
   -1.8253   -1.3300   29.1031 C   0  0  0  0  0  0  0  0  0  0  0  0
   -1.4260   -0.2281   28.2982 C   0  0  0  0  0  0  0  0  0  0  0  0
   -0.7596    0.7417   28.9172 N   0  0  0  0  0  0  0  0  0  0  0  0
   -0.6490    0.3515   30.5261 S   0  0  0  0  0  0  0  0  0  0  0  0
   -0.6937   -3.7539   32.9394 H   0  0  0  0  0  0  0  0  0  0  0  0
    1.0652   -1.5235   31.9757 H   0  0  0  0  0  0  0  0  0  0  0  0
    1.0036   -2.2135   33.5775 H   0  0  0  0  0  0  0  0  0  0  0  0
    2.7352   -3.0035   31.4363 H   0  0  0  0  0  0  0  0  0  0  0  0
    2.6005   -3.7007   33.0319 H   0  0  0  0  0  0  0  0  0  0  0  0
    0.3260   -7.9255   33.6100 H   0  0  0  0  0  0  0  0  0  0  0  0
   -0.8155   -9.1742   32.1339 H   0  0  0  0  0  0  0  0  0  0  0  0
   -2.1662   -8.2144   32.7169 H   0  0  0  0  0  0  0  0  0  0  0  0
   -2.1762   -7.1874   30.7840 H   0  0  0  0  0  0  0  0  0  0  0  0
   -0.7331   -5.6236   29.1358 H   0  0  0  0  0  0  0  0  0  0  0  0
    3.1720   -4.9306   29.8082 H   0  0  0  0  0  0  0  0  0  0  0  0
    2.2030   -6.0943   28.9434 H   0  0  0  0  0  0  0  0  0  0  0  0
    1.4772   -4.3177   27.5354 H   0  0  0  0  0  0  0  0  0  0  0  0
    2.7861   -2.2569   27.4385 H   0  0  0  0  0  0  0  0  0  0  0  0
    3.4947   -2.7555   28.9598 H   0  0  0  0  0  0  0  0  0  0  0  0
    0.8381   -1.6691   28.3801 H   0  0  0  0  0  0  0  0  0  0  0  0
    1.7170   -1.6500   29.8890 H   0  0  0  0  0  0  0  0  0  0  0  0
   -0.1928   -3.5408   28.8121 H   0  0  0  0  0  0  0  0  0  0  0  0
   -2.3302   -2.2088   28.7317 H   0  0  0  0  0  0  0  0  0  0  0  0
   -1.5972   -0.1252   27.2329 H   0  0  0  0  0  0  0  0  0  0  0  0
  1  2  2  0
  2  3  2  0
  2  4  1  0
  4  5  1  0
  5  6  1  0
  6  7  1  0
  7  8  2  0
  8  9  1  0
  9 10  1  0
 10 11  1  0
 11 12  1  0
 12 13  1  0
 13 14  2  0
 14 15  1  0
 15 16  1  0
 16 17  1  0
 17 18  1  0
 18 19  1  0
 19 20  1  0
  2 21  1  0
 21 22  2  0
 22 23  1  0
 23 24  2  0
 24 25  1  0
 15  7  1  0
 25 21  1  0
 13  9  1  0
 20 15  1  0
  4 26  1  0
  5 27  1  0
  5 28  1  0
  6 29  1  0
  6 30  1  0
 10 31  1  0
 11 32  1  0
 11 33  1  0
 12 34  1  0
 14 35  1  0
 16 36  1  0
 16 37  1  0
 17 38  1  0
 18 39  1  0
 18 40  1  0
 19 41  1  0
 19 42  1  0
 20 43  1  0
 22 44  1  0
 23 45  1  0
M  END
>  <Energy>  (774) 
23.334440309304078

>  <compound_id>  (774) 
2863

>  <target_id>  (774) 
1

>  <reference_id>  (774) 
187

>  <inspiration_ids>  (774) 
[187, 13]

>  <energy_score>  (774) 
-60.60596433388827

>  <distance_score>  (774) 
2.74780693776294

>  <path>  (774) 
/opt/xchem-fragalysis-2/maxwin/BulkDock/SCRATCH/505736/C2863-P187/C2863-P187.minimised.mol

>  <scratch_subdir>  (774) 
/opt/xchem-fragalysis-2/maxwin/BulkDock/SCRATCH/505736/C2863-P187

>  <fragmenstein_runtime>  (774) 
3.963923454284668

>  <fragmenstein_outcome>  (774) 
too moved

>  <fragmenstein_mode>  (774) 
expansion

>  <fragmenstein_error>  (774) 


$$$$
C2863-P13
     RDKit          3D

 45 48  0  0  0  0  0  0  0  0999 V2000
   -1.7548   -0.9478   32.9628 O   0  0  0  0  0  0  0  0  0  0  0  0
   -1.7687   -1.9050   31.8838 S   0  0  0  0  0  0  0  0  0  0  0  0
   -2.8899   -2.7850   31.6325 O   0  0  0  0  0  0  0  0  0  0  0  0
   -0.4786   -2.9467   32.1006 N   0  0  0  0  0  0  0  0  0  0  0  0
    0.8433   -2.4282   32.4869 C   0  0  0  0  0  0  0  0  0  0  0  0
    1.9751   -3.3905   32.1278 C   0  0  0  0  0  0  0  0  0  0  0  0
    1.3998   -4.6461   31.5703 C   0  0  0  0  0  0  0  0  0  0  0  0
    1.1794   -5.5924   32.4550 N   0  0  0  0  0  0  0  0  0  0  0  0
    0.4876   -6.6742   32.0515 N   0  0  0  0  0  0  0  0  0  0  0  0
   -0.2639   -7.3267   33.0609 N   0  0  0  0  0  0  0  0  0  0  0  0
   -1.2243   -8.1034   32.2741 C   0  0  0  0  0  0  0  0  0  0  0  0
   -1.2943   -7.5802   30.9160 N   0  0  0  0  0  0  0  0  0  0  0  0
   -0.2709   -6.6506   30.9006 C   0  0  0  0  0  0  0  0  0  0  0  0
   -0.0749   -5.6830   30.0055 C   0  0  0  0  0  0  0  0  0  0  0  0
    1.0261   -4.6593   30.0628 C   0  0  0  0  0  0  0  0  0  0  0  0
    2.2962   -5.0081   29.2488 C   0  0  0  0  0  0  0  0  0  0  0  0
    3.2223   -3.8716   29.0298 N   0  0  0  0  0  0  0  0  0  0  0  0
    2.5463   -2.8019   28.2974 C   0  0  0  0  0  0  0  0  0  0  0  0
    1.2977   -2.3339   29.0262 C   0  0  0  0  0  0  0  0  0  0  0  0
    0.4156   -3.4033   29.5128 N   0  0  0  0  0  0  0  0  0  0  0  0
   -1.5408   -1.0140   30.3811 C   0  0  0  0  0  0  0  0  0  0  0  0
   -1.8908   -1.2273   29.0600 C   0  0  0  0  0  0  0  0  0  0  0  0
   -1.4329   -0.1648   28.2342 C   0  0  0  0  0  0  0  0  0  0  0  0
   -0.7087    0.7753   28.8352 N   0  0  0  0  0  0  0  0  0  0  0  0
   -0.5894    0.3935   30.4457 S   0  0  0  0  0  0  0  0  0  0  0  0
   -0.7774   -3.7319   32.6970 H   0  0  0  0  0  0  0  0  0  0  0  0
    1.0432   -1.4557   32.0340 H   0  0  0  0  0  0  0  0  0  0  0  0
    0.8413   -2.2712   33.5723 H   0  0  0  0  0  0  0  0  0  0  0  0
    2.6813   -2.9304   31.4357 H   0  0  0  0  0  0  0  0  0  0  0  0
    2.5567   -3.6213   33.0290 H   0  0  0  0  0  0  0  0  0  0  0  0
    0.3394   -7.9440   33.5886 H   0  0  0  0  0  0  0  0  0  0  0  0
   -0.8948   -9.1322   32.1805 H   0  0  0  0  0  0  0  0  0  0  0  0
   -2.2043   -8.1075   32.7514 H   0  0  0  0  0  0  0  0  0  0  0  0
   -2.1734   -7.1208   30.7451 H   0  0  0  0  0  0  0  0  0  0  0  0
   -0.7845   -5.5546   29.2103 H   0  0  0  0  0  0  0  0  0  0  0  0
    2.8645   -5.7881   29.7690 H   0  0  0  0  0  0  0  0  0  0  0  0
    2.0412   -5.4223   28.2698 H   0  0  0  0  0  0  0  0  0  0  0  0
    4.0207   -4.1951   28.4834 H   0  0  0  0  0  0  0  0  0  0  0  0
    2.2967   -3.1704   27.3019 H   0  0  0  0  0  0  0  0  0  0  0  0
    3.2350   -1.9603   28.1662 H   0  0  0  0  0  0  0  0  0  0  0  0
    0.7431   -1.7063   28.3292 H   0  0  0  0  0  0  0  0  0  0  0  0
    1.6052   -1.6976   29.8587 H   0  0  0  0  0  0  0  0  0  0  0  0
   -0.2060   -3.0630   30.2340 H   0  0  0  0  0  0  0  0  0  0  0  0
   -2.4192   -2.0967   28.6973 H   0  0  0  0  0  0  0  0  0  0  0  0
   -1.5908   -0.0787   27.1650 H   0  0  0  0  0  0  0  0  0  0  0  0
  1  2  2  0
  2  3  2  0
  2  4  1  0
  4  5  1  0
  5  6  1  0
  6  7  1  0
  7  8  2  0
  8  9  1  0
  9 10  1  0
 10 11  1  0
 11 12  1  0
 12 13  1  0
 13 14  2  0
 14 15  1  0
 15 16  1  0
 16 17  1  0
 17 18  1  0
 18 19  1  0
 19 20  1  0
  2 21  1  0
 21 22  2  0
 22 23  1  0
 23 24  2  0
 24 25  1  0
 15  7  1  0
 25 21  1  0
 13  9  1  0
 20 15  1  0
  4 26  1  0
  5 27  1  0
  5 28  1  0
  6 29  1  0
  6 30  1  0
 10 31  1  0
 11 32  1  0
 11 33  1  0
 12 34  1  0
 14 35  1  0
 16 36  1  0
 16 37  1  0
 17 38  1  0
 18 39  1  0
 18 40  1  0
 19 41  1  0
 19 42  1  0
 20 43  1  0
 22 44  1  0
 23 45  1  0
M  END
>  <Energy>  (775) 
16.44540108978827

>  <compound_id>  (775) 
2863

>  <target_id>  (775) 
1

>  <reference_id>  (775) 
13

>  <inspiration_ids>  (775) 
[187, 13]

>  <energy_score>  (775) 
-67.4950035534041

>  <distance_score>  (775) 
2.793769088586444

>  <path>  (775) 
/opt/xchem-fragalysis-2/maxwin/BulkDock/SCRATCH/505736/C2863-P13/C2863-P13.minimised.mol

>  <scratch_subdir>  (775) 
/opt/xchem-fragalysis-2/maxwin/BulkDock/SCRATCH/505736/C2863-P13

>  <fragmenstein_runtime>  (775) 
2.8673696517944336

>  <fragmenstein_outcome>  (775) 
too moved

>  <fragmenstein_mode>  (775) 
expansion

>  <fragmenstein_error>  (775) 


$$$$
C2865-P187
     RDKit          3D

 41 43  0  0  0  0  0  0  0  0999 V2000
    0.0338   -8.0270   29.8906 N   0  0  0  0  0  0  0  0  0  0  0  0
    0.1755   -7.0543   30.8836 C   0  0  0  0  0  0  0  0  0  0  0  0
   -0.4728   -7.2782   32.0406 N   0  0  0  0  0  0  0  0  0  0  0  0
   -0.4040   -6.3611   33.0495 N   0  0  0  0  0  0  0  0  0  0  0  0
    0.2900   -5.2257   32.8559 C   0  0  0  0  0  0  0  0  0  0  0  0
    0.4196   -4.2441   33.9756 C   0  0  0  0  0  0  0  0  0  0  0  0
   -0.5770   -3.1060   33.8392 C   0  0  0  0  0  0  0  0  0  0  0  0
   -0.2820   -2.2482   32.6616 N   0  0  0  0  0  0  0  0  0  0  0  0
   -1.6617   -1.8285   31.7724 S   0  0  0  0  0  0  0  0  0  0  0  0
   -2.3283   -0.7807   32.5137 O   0  0  0  0  0  0  0  0  0  0  0  0
   -2.3371   -3.0546   31.4040 O   0  0  0  0  0  0  0  0  0  0  0  0
   -1.1524   -1.0954   30.2697 C   0  0  0  0  0  0  0  0  0  0  0  0
   -1.4535   -1.2832   28.9372 C   0  0  0  0  0  0  0  0  0  0  0  0
   -0.7973   -0.3014   28.1469 C   0  0  0  0  0  0  0  0  0  0  0  0
    0.0294    0.5289   28.7782 N   0  0  0  0  0  0  0  0  0  0  0  0
   -0.0478    0.1950   30.4001 S   0  0  0  0  0  0  0  0  0  0  0  0
    0.9326   -4.9311   31.7199 N   0  0  0  0  0  0  0  0  0  0  0  0
    0.8772   -5.8535   30.7479 C   0  0  0  0  0  0  0  0  0  0  0  0
    1.7034   -5.4638   29.7061 N   0  0  0  0  0  0  0  0  0  0  0  0
    2.3551   -6.2573   28.6340 C   0  0  0  0  0  0  0  0  0  0  0  0
    2.2588   -7.3992   28.3704 O   0  0  0  0  0  0  0  0  0  0  0  0
    3.2296   -5.2067   28.0441 N   0  0  0  0  0  0  0  0  0  0  0  0
    4.2109   -5.2931   27.1118 C   0  0  0  0  0  0  0  0  0  0  0  0
    4.6018   -6.3977   26.3366 C   0  0  0  0  0  0  0  0  0  0  0  0
    5.6931   -6.1351   25.6178 N   0  0  0  0  0  0  0  0  0  0  0  0
    5.9583   -4.8476   25.8974 N   0  0  0  0  0  0  0  0  0  0  0  0
    5.0803   -4.2897   26.7829 C   0  0  0  0  0  0  0  0  0  0  0  0
   -0.3653   -8.8596   30.3256 H   0  0  0  0  0  0  0  0  0  0  0  0
    0.9251   -8.2578   29.4605 H   0  0  0  0  0  0  0  0  0  0  0  0
    0.2522   -4.7622   34.9272 H   0  0  0  0  0  0  0  0  0  0  0  0
    1.4446   -3.8548   34.0003 H   0  0  0  0  0  0  0  0  0  0  0  0
   -1.5831   -3.5132   33.7783 H   0  0  0  0  0  0  0  0  0  0  0  0
   -0.5355   -2.4724   34.7327 H   0  0  0  0  0  0  0  0  0  0  0  0
    0.2387   -1.4091   32.9221 H   0  0  0  0  0  0  0  0  0  0  0  0
   -2.1319   -2.0344   28.5549 H   0  0  0  0  0  0  0  0  0  0  0  0
   -0.9121   -0.1780   27.0791 H   0  0  0  0  0  0  0  0  0  0  0  0
    2.0701   -4.5353   29.6994 H   0  0  0  0  0  0  0  0  0  0  0  0
    3.1176   -4.3542   28.5595 H   0  0  0  0  0  0  0  0  0  0  0  0
    4.1632   -7.3844   26.2775 H   0  0  0  0  0  0  0  0  0  0  0  0
    6.7590   -4.4155   25.4457 H   0  0  0  0  0  0  0  0  0  0  0  0
    5.1895   -3.2647   27.1063 H   0  0  0  0  0  0  0  0  0  0  0  0
  1  2  1  0
  2  3  2  0
  3  4  1  0
  4  5  2  0
  5  6  1  0
  6  7  1  0
  7  8  1  0
  8  9  1  0
  9 10  2  0
  9 11  2  0
  9 12  1  0
 12 13  2  0
 13 14  1  0
 14 15  2  0
 15 16  1  0
  5 17  1  0
 17 18  2  0
 18 19  1  0
 19 20  1  0
 20 21  2  0
 20 22  1  0
 22 23  1  0
 23 24  1  0
 24 25  2  0
 25 26  1  0
 26 27  1  0
 18  2  1  0
 27 23  2  0
 16 12  1  0
  1 28  1  0
  1 29  1  0
  6 30  1  0
  6 31  1  0
  7 32  1  0
  7 33  1  0
  8 34  1  0
 13 35  1  0
 14 36  1  0
 19 37  1  0
 22 38  1  0
 24 39  1  0
 26 40  1  0
 27 41  1  0
M  END
>  <Energy>  (776) 
-70.728749973698427

>  <compound_id>  (776) 
2865

>  <target_id>  (776) 
1

>  <reference_id>  (776) 
187

>  <inspiration_ids>  (776) 
[187, 40]

>  <energy_score>  (776) 
-75.98506829569908

>  <distance_score>  (776) 
3.043803493496945

>  <path>  (776) 
/opt/xchem-fragalysis-2/maxwin/BulkDock/SCRATCH/505736/C2865-P187/C2865-P187.minimised.mol

>  <scratch_subdir>  (776) 
/opt/xchem-fragalysis-2/maxwin/BulkDock/SCRATCH/505736/C2865-P187

>  <fragmenstein_runtime>  (776) 
9.025328874588013

>  <fragmenstein_outcome>  (776) 
too moved

>  <fragmenstein_mode>  (776) 
expansion

>  <fragmenstein_error>  (776) 


$$$$
C2865-P40
     RDKit          3D

 41 43  0  0  0  0  0  0  0  0999 V2000
   -0.7002   -8.3228   30.5739 N   0  0  0  0  0  0  0  0  0  0  0  0
   -0.5334   -7.2280   31.4264 C   0  0  0  0  0  0  0  0  0  0  0  0
   -1.0167   -7.3533   32.6743 N   0  0  0  0  0  0  0  0  0  0  0  0
   -0.9308   -6.3063   33.5500 N   0  0  0  0  0  0  0  0  0  0  0  0
   -0.4154   -5.1386   33.1275 C   0  0  0  0  0  0  0  0  0  0  0  0
   -0.1996   -4.0370   34.1142 C   0  0  0  0  0  0  0  0  0  0  0  0
    0.0589   -2.6705   33.4734 C   0  0  0  0  0  0  0  0  0  0  0  0
   -1.1527   -1.8416   33.3625 N   0  0  0  0  0  0  0  0  0  0  0  0
   -2.1110   -1.8730   31.9885 S   0  0  0  0  0  0  0  0  0  0  0  0
   -3.1495   -0.8917   32.2175 O   0  0  0  0  0  0  0  0  0  0  0  0
   -2.4398   -3.2521   31.6981 O   0  0  0  0  0  0  0  0  0  0  0  0
   -1.2479   -1.3031   30.5757 C   0  0  0  0  0  0  0  0  0  0  0  0
   -1.2995   -1.6009   29.2277 C   0  0  0  0  0  0  0  0  0  0  0  0
   -0.4061   -0.7668   28.5015 C   0  0  0  0  0  0  0  0  0  0  0  0
    0.3396    0.0723   29.2167 N   0  0  0  0  0  0  0  0  0  0  0  0
   -0.1205   -0.0503   30.8080 S   0  0  0  0  0  0  0  0  0  0  0  0
    0.0767   -4.9567   31.9003 N   0  0  0  0  0  0  0  0  0  0  0  0
    0.0225   -6.0044   31.0685 C   0  0  0  0  0  0  0  0  0  0  0  0
    0.7521   -5.6943   29.9401 N   0  0  0  0  0  0  0  0  0  0  0  0
    1.3359   -6.5599   28.9001 C   0  0  0  0  0  0  0  0  0  0  0  0
    1.2504   -7.7228   28.7423 O   0  0  0  0  0  0  0  0  0  0  0  0
    2.1484   -5.5433   28.1646 N   0  0  0  0  0  0  0  0  0  0  0  0
    3.0719   -5.6906   27.1813 C   0  0  0  0  0  0  0  0  0  0  0  0
    3.5362   -6.8471   26.5407 C   0  0  0  0  0  0  0  0  0  0  0  0
    4.5522   -6.5859   25.7231 N   0  0  0  0  0  0  0  0  0  0  0  0
    4.7120   -5.2595   25.8145 N   0  0  0  0  0  0  0  0  0  0  0  0
    3.8235   -4.6666   26.6666 C   0  0  0  0  0  0  0  0  0  0  0  0
   -0.8980   -9.1194   31.1834 H   0  0  0  0  0  0  0  0  0  0  0  0
    0.1657   -8.5170   30.0657 H   0  0  0  0  0  0  0  0  0  0  0  0
    0.6888   -4.3165   34.6946 H   0  0  0  0  0  0  0  0  0  0  0  0
   -1.0363   -3.9907   34.8184 H   0  0  0  0  0  0  0  0  0  0  0  0
    0.6031   -2.7047   32.5255 H   0  0  0  0  0  0  0  0  0  0  0  0
    0.7135   -2.1129   34.1569 H   0  0  0  0  0  0  0  0  0  0  0  0
   -1.7441   -1.8290   34.1977 H   0  0  0  0  0  0  0  0  0  0  0  0
   -1.9609   -2.3333   28.7864 H   0  0  0  0  0  0  0  0  0  0  0  0
   -0.2767   -0.7625   27.4257 H   0  0  0  0  0  0  0  0  0  0  0  0
    1.0939   -4.7626   29.8244 H   0  0  0  0  0  0  0  0  0  0  0  0
    1.9223   -4.6271   28.5055 H   0  0  0  0  0  0  0  0  0  0  0  0
    3.2022   -7.8689   26.6374 H   0  0  0  0  0  0  0  0  0  0  0  0
    5.4445   -4.8309   25.2560 H   0  0  0  0  0  0  0  0  0  0  0  0
    3.8533   -3.6018   26.8479 H   0  0  0  0  0  0  0  0  0  0  0  0
  1  2  1  0
  2  3  2  0
  3  4  1  0
  4  5  2  0
  5  6  1  0
  6  7  1  0
  7  8  1  0
  8  9  1  0
  9 10  2  0
  9 11  2  0
  9 12  1  0
 12 13  2  0
 13 14  1  0
 14 15  2  0
 15 16  1  0
  5 17  1  0
 17 18  2  0
 18 19  1  0
 19 20  1  0
 20 21  2  0
 20 22  1  0
 22 23  1  0
 23 24  1  0
 24 25  2  0
 25 26  1  0
 26 27  1  0
 18  2  1  0
 27 23  2  0
 16 12  1  0
  1 28  1  0
  1 29  1  0
  6 30  1  0
  6 31  1  0
  7 32  1  0
  7 33  1  0
  8 34  1  0
 13 35  1  0
 14 36  1  0
 19 37  1  0
 22 38  1  0
 24 39  1  0
 26 40  1  0
 27 41  1  0
M  END
>  <Energy>  (777) 
-68.945605192184544

>  <compound_id>  (777) 
2865

>  <target_id>  (777) 
1

>  <reference_id>  (777) 
40

>  <inspiration_ids>  (777) 
[187, 40]

>  <energy_score>  (777) 
-74.20192351418241

>  <distance_score>  (777) 
2.700432089757433

>  <path>  (777) 
/opt/xchem-fragalysis-2/maxwin/BulkDock/SCRATCH/505736/C2865-P40/C2865-P40.minimised.mol

>  <scratch_subdir>  (777) 
/opt/xchem-fragalysis-2/maxwin/BulkDock/SCRATCH/505736/C2865-P40

>  <fragmenstein_runtime>  (777) 
6.292267560958862

>  <fragmenstein_outcome>  (777) 
too moved

>  <fragmenstein_mode>  (777) 
expansion

>  <fragmenstein_error>  (777) 


$$$$
C2842-P187
     RDKit          3D

 67 70  0  0  0  0  0  0  0  0999 V2000
    3.5929   -3.6899   32.6876 C   0  0  0  0  0  0  0  0  0  0  0  0
    2.6446   -2.8665   31.8779 C   0  0  0  0  0  0  0  0  0  0  0  0
    1.8316   -3.2438   30.8658 C   0  0  0  0  0  0  0  0  0  0  0  0
    1.5653   -4.6517   30.3325 C   0  0  0  0  0  0  0  0  0  0  0  0
    1.0073   -5.6324   31.3374 C   0  0  0  0  0  0  0  0  0  0  0  0
    1.6955   -5.7699   32.4882 N   0  0  0  0  0  0  0  0  0  0  0  0
    1.1743   -6.4509   33.5152 N   0  0  0  0  0  0  0  0  0  0  0  0
   -0.0362   -7.0036   33.3603 C   0  0  0  0  0  0  0  0  0  0  0  0
   -0.7223   -7.4529   34.6000 C   0  0  0  0  0  0  0  0  0  0  0  0
   -0.7187   -6.3673   35.6877 C   0  0  0  0  0  0  0  0  0  0  0  0
    0.5029   -6.4215   36.5973 C   0  0  0  0  0  0  0  0  0  0  0  0
   -0.5826   -7.0339   32.0996 C   0  0  0  0  0  0  0  0  0  0  0  0
   -1.6903   -7.7478   31.7896 O   0  0  0  0  0  0  0  0  0  0  0  0
   -0.0951   -6.3515   31.0525 N   0  0  0  0  0  0  0  0  0  0  0  0
    1.3489   -2.1334   30.0607 N   0  0  0  0  0  0  0  0  0  0  0  0
    2.1508   -0.9270   29.9314 N   0  0  0  0  0  0  0  0  0  0  0  0
    2.4071   -0.5439   28.5277 C   0  0  0  0  0  0  0  0  0  0  0  0
    3.8771   -0.4740   28.4447 N   0  0  0  0  0  0  0  0  0  0  0  0
    4.3536   -0.5793   27.0671 N   0  0  0  0  0  0  0  0  0  0  0  0
    5.2555   -1.7240   26.9117 C   0  0  0  0  0  0  0  0  0  0  0  0
    4.4079   -3.3140   27.1189 S   0  0  0  0  0  0  0  0  0  0  0  0
    1.7244    0.7773   28.1124 C   0  0  0  0  0  0  0  0  0  0  0  0
    2.1026    2.0576   28.8964 C   0  0  0  0  0  0  0  0  0  0  0  0
    0.8758    2.9790   28.9408 C   0  0  0  0  0  0  0  0  0  0  0  0
   -0.2749    2.0699   29.3406 C   0  0  0  0  0  0  0  0  0  0  0  0
    0.0014    0.6721   28.3319 S   0  0  0  0  0  0  0  0  0  0  0  0
   -0.9361    0.9285   26.9748 N   0  0  0  0  0  0  0  0  0  0  0  0
   -2.1597    0.1550   27.1342 C   0  0  0  0  0  0  0  0  0  0  0  0
   -2.0690   -0.7484   28.4104 C   0  0  0  0  0  0  0  0  0  0  0  0
   -0.6249   -0.9296   28.7984 C   0  0  0  0  0  0  0  0  0  0  0  0
   -0.3371   -1.6892   30.3783 S   0  0  0  0  0  0  0  0  0  0  0  0
   -0.4092   -0.7188   31.4543 O   0  0  0  0  0  0  0  0  0  0  0  0
   -1.1273   -2.9101   30.4689 O   0  0  0  0  0  0  0  0  0  0  0  0
    3.1811   -3.8927   33.6800 H   0  0  0  0  0  0  0  0  0  0  0  0
    4.5252   -3.1305   32.8240 H   0  0  0  0  0  0  0  0  0  0  0  0
    3.8676   -4.6230   32.1916 H   0  0  0  0  0  0  0  0  0  0  0  0
    2.6756   -1.8191   32.1796 H   0  0  0  0  0  0  0  0  0  0  0  0
    0.8768   -4.5952   29.4808 H   0  0  0  0  0  0  0  0  0  0  0  0
    2.5031   -5.0613   29.9371 H   0  0  0  0  0  0  0  0  0  0  0  0
   -1.7638   -7.7073   34.3755 H   0  0  0  0  0  0  0  0  0  0  0  0
   -0.2416   -8.3547   34.9830 H   0  0  0  0  0  0  0  0  0  0  0  0
   -1.5916   -6.5150   36.3213 H   0  0  0  0  0  0  0  0  0  0  0  0
   -0.8163   -5.3654   35.2530 H   0  0  0  0  0  0  0  0  0  0  0  0
    1.4289   -6.2118   36.0563 H   0  0  0  0  0  0  0  0  0  0  0  0
    0.4079   -5.6764   37.3939 H   0  0  0  0  0  0  0  0  0  0  0  0
    0.5955   -7.4054   37.0686 H   0  0  0  0  0  0  0  0  0  0  0  0
   -1.7725   -7.4827   30.8591 H   0  0  0  0  0  0  0  0  0  0  0  0
    3.0894   -1.1624   30.2586 H   0  0  0  0  0  0  0  0  0  0  0  0
    2.0576   -1.3505   27.8724 H   0  0  0  0  0  0  0  0  0  0  0  0
    4.1810    0.4202   28.8425 H   0  0  0  0  0  0  0  0  0  0  0  0
    3.6191   -0.6517   26.3555 H   0  0  0  0  0  0  0  0  0  0  0  0
    5.6829   -1.6999   25.9060 H   0  0  0  0  0  0  0  0  0  0  0  0
    6.0885   -1.6607   27.6203 H   0  0  0  0  0  0  0  0  0  0  0  0
    3.9556   -3.0226   28.3465 H   0  0  0  0  0  0  0  0  0  0  0  0
    1.8952    0.9650   27.0485 H   0  0  0  0  0  0  0  0  0  0  0  0
    2.9577    2.5606   28.4325 H   0  0  0  0  0  0  0  0  0  0  0  0
    2.3942    1.8094   29.9243 H   0  0  0  0  0  0  0  0  0  0  0  0
    0.7037    3.4159   27.9497 H   0  0  0  0  0  0  0  0  0  0  0  0
    1.0082    3.7977   29.6541 H   0  0  0  0  0  0  0  0  0  0  0  0
   -1.2241    2.5192   29.0546 H   0  0  0  0  0  0  0  0  0  0  0  0
   -0.2272    1.7665   30.3864 H   0  0  0  0  0  0  0  0  0  0  0  0
   -1.1731    1.9087   26.8022 H   0  0  0  0  0  0  0  0  0  0  0  0
   -2.3387   -0.4468   26.2506 H   0  0  0  0  0  0  0  0  0  0  0  0
   -2.9704    0.8803   27.2086 H   0  0  0  0  0  0  0  0  0  0  0  0
   -2.5461   -0.2562   29.2619 H   0  0  0  0  0  0  0  0  0  0  0  0
   -2.5502   -1.7104   28.2315 H   0  0  0  0  0  0  0  0  0  0  0  0
   -0.2013   -1.6331   28.0711 H   0  0  0  0  0  0  0  0  0  0  0  0
  1  2  1  0
  2  3  2  3
  3  4  1  0
  4  5  1  0
  5  6  2  0
  6  7  1  0
  7  8  2  0
  8  9  1  0
  9 10  1  0
 10 11  1  0
  8 12  1  0
 12 13  1  0
 12 14  2  0
  3 15  1  0
 15 16  1  0
 16 17  1  0
 17 18  1  0
 18 19  1  0
 19 20  1  0
 20 21  1  0
 17 22  1  0
 22 23  1  0
 23 24  1  0
 24 25  1  0
 25 26  1  0
 26 27  1  0
 27 28  1  0
 28 29  1  0
 29 30  1  0
 30 31  1  0
 31 32  2  0
 31 33  2  0
 14  5  1  0
 31 15  1  0
 26 22  1  0
 30 26  1  0
  1 34  1  0
  1 35  1  0
  1 36  1  0
  2 37  1  0
  4 38  1  0
  4 39  1  0
  9 40  1  0
  9 41  1  0
 10 42  1  0
 10 43  1  0
 11 44  1  0
 11 45  1  0
 11 46  1  0
 13 47  1  0
 16 48  1  0
 17 49  1  0
 18 50  1  0
 19 51  1  0
 20 52  1  0
 20 53  1  0
 21 54  1  0
 22 55  1  0
 23 56  1  0
 23 57  1  0
 24 58  1  0
 24 59  1  0
 25 60  1  0
 25 61  1  0
 27 62  1  0
 28 63  1  0
 28 64  1  0
 29 65  1  0
 29 66  1  0
 30 67  1  0
M  END
>  <Energy>  (778) 
224.07517771021529

>  <compound_id>  (778) 
2842

>  <target_id>  (778) 
1

>  <reference_id>  (778) 
187

>  <inspiration_ids>  (778) 
[187, 44]

>  <energy_score>  (778) 
-110.18604935597409

>  <distance_score>  (778) 
2.286254477374225

>  <path>  (778) 
/opt/xchem-fragalysis-2/maxwin/BulkDock/SCRATCH/505736/C2842-P187/C2842-P187.minimised.mol

>  <scratch_subdir>  (778) 
/opt/xchem-fragalysis-2/maxwin/BulkDock/SCRATCH/505736/C2842-P187

>  <fragmenstein_runtime>  (778) 
11.201940298080444

>  <fragmenstein_outcome>  (778) 
too moved

>  <fragmenstein_mode>  (778) 
expansion

>  <fragmenstein_error>  (778) 


$$$$
C2842-P44
     RDKit          3D

 67 70  0  0  0  0  0  0  0  0999 V2000
    3.1849   -5.1132   27.6015 C   0  0  0  0  0  0  0  0  0  0  0  0
    2.2439   -4.0533   28.0753 C   0  0  0  0  0  0  0  0  0  0  0  0
    1.6886   -3.9122   29.2953 C   0  0  0  0  0  0  0  0  0  0  0  0
    2.1398   -4.7104   30.4883 C   0  0  0  0  0  0  0  0  0  0  0  0
    1.1492   -5.4310   31.3472 C   0  0  0  0  0  0  0  0  0  0  0  0
    1.1233   -4.9833   32.6246 N   0  0  0  0  0  0  0  0  0  0  0  0
    0.3964   -5.6235   33.5350 N   0  0  0  0  0  0  0  0  0  0  0  0
   -0.2825   -6.7153   33.1564 C   0  0  0  0  0  0  0  0  0  0  0  0
   -0.8808   -7.5398   34.2315 C   0  0  0  0  0  0  0  0  0  0  0  0
   -0.8263   -6.9798   35.6541 C   0  0  0  0  0  0  0  0  0  0  0  0
    0.5543   -7.0505   36.2967 C   0  0  0  0  0  0  0  0  0  0  0  0
   -0.2496   -7.1210   31.8361 C   0  0  0  0  0  0  0  0  0  0  0  0
   -0.9075   -8.2320   31.3983 O   0  0  0  0  0  0  0  0  0  0  0  0
    0.4938   -6.5243   30.8964 N   0  0  0  0  0  0  0  0  0  0  0  0
    0.9807   -2.6412   29.3764 N   0  0  0  0  0  0  0  0  0  0  0  0
    1.8528   -1.5569   29.7944 N   0  0  0  0  0  0  0  0  0  0  0  0
    1.8954   -0.3622   28.9210 C   0  0  0  0  0  0  0  0  0  0  0  0
    2.9963   -0.5971   27.9697 N   0  0  0  0  0  0  0  0  0  0  0  0
    3.7515    0.6314   27.7831 N   0  0  0  0  0  0  0  0  0  0  0  0
    4.3164    0.6838   26.4395 C   0  0  0  0  0  0  0  0  0  0  0  0
    5.1563    2.2752   26.2558 S   0  0  0  0  0  0  0  0  0  0  0  0
    0.6196    0.0517   28.1857 C   0  0  0  0  0  0  0  0  0  0  0  0
    0.6027    1.4728   27.5634 C   0  0  0  0  0  0  0  0  0  0  0  0
   -0.8521    1.8192   27.1767 C   0  0  0  0  0  0  0  0  0  0  0  0
   -1.8120    1.0567   28.0927 C   0  0  0  0  0  0  0  0  0  0  0  0
   -0.7815    0.1502   29.2011 S   0  0  0  0  0  0  0  0  0  0  0  0
   -0.5764    0.8391   30.7058 N   0  0  0  0  0  0  0  0  0  0  0  0
   -1.3909    0.1476   31.7065 C   0  0  0  0  0  0  0  0  0  0  0  0
   -2.2902   -0.8628   30.9390 C   0  0  0  0  0  0  0  0  0  0  0  0
   -1.4783   -1.3967   29.7437 C   0  0  0  0  0  0  0  0  0  0  0  0
   -0.3908   -2.6601   30.4550 S   0  0  0  0  0  0  0  0  0  0  0  0
    0.1049   -2.2326   31.7529 O   0  0  0  0  0  0  0  0  0  0  0  0
   -1.1245   -3.9037   30.3756 O   0  0  0  0  0  0  0  0  0  0  0  0
    2.9582   -5.3662   26.5609 H   0  0  0  0  0  0  0  0  0  0  0  0
    3.1126   -6.0400   28.1759 H   0  0  0  0  0  0  0  0  0  0  0  0
    4.2145   -4.7459   27.6399 H   0  0  0  0  0  0  0  0  0  0  0  0
    2.0444   -3.2770   27.3451 H   0  0  0  0  0  0  0  0  0  0  0  0
    2.8854   -5.4592   30.2022 H   0  0  0  0  0  0  0  0  0  0  0  0
    2.7035   -4.0169   31.1297 H   0  0  0  0  0  0  0  0  0  0  0  0
   -0.3248   -8.4747   34.2291 H   0  0  0  0  0  0  0  0  0  0  0  0
   -1.9233   -7.7524   33.9767 H   0  0  0  0  0  0  0  0  0  0  0  0
   -1.4838   -7.6028   36.2606 H   0  0  0  0  0  0  0  0  0  0  0  0
   -1.2130   -5.9555   35.6945 H   0  0  0  0  0  0  0  0  0  0  0  0
    1.2813   -6.4106   35.7908 H   0  0  0  0  0  0  0  0  0  0  0  0
    0.4957   -6.7247   37.3405 H   0  0  0  0  0  0  0  0  0  0  0  0
    0.9372   -8.0763   36.2873 H   0  0  0  0  0  0  0  0  0  0  0  0
   -0.4573   -8.3675   30.5423 H   0  0  0  0  0  0  0  0  0  0  0  0
    1.5402   -1.2465   30.7281 H   0  0  0  0  0  0  0  0  0  0  0  0
    2.1804    0.4524   29.6018 H   0  0  0  0  0  0  0  0  0  0  0  0
    3.5629   -1.3362   28.3942 H   0  0  0  0  0  0  0  0  0  0  0  0
    4.5152    0.7344   28.4565 H   0  0  0  0  0  0  0  0  0  0  0  0
    3.5355    0.6161   25.6765 H   0  0  0  0  0  0  0  0  0  0  0  0
    5.0404   -0.1217   26.2787 H   0  0  0  0  0  0  0  0  0  0  0  0
    4.0635    3.0180   26.4787 H   0  0  0  0  0  0  0  0  0  0  0  0
    0.3732   -0.6854   27.4135 H   0  0  0  0  0  0  0  0  0  0  0  0
    1.2642    1.5550   26.6988 H   0  0  0  0  0  0  0  0  0  0  0  0
    0.9517    2.2047   28.3039 H   0  0  0  0  0  0  0  0  0  0  0  0
   -1.0535    1.5437   26.1394 H   0  0  0  0  0  0  0  0  0  0  0  0
   -1.0171    2.8998   27.2485 H   0  0  0  0  0  0  0  0  0  0  0  0
   -2.4006    0.3359   27.5201 H   0  0  0  0  0  0  0  0  0  0  0  0
   -2.4723    1.7231   28.6357 H   0  0  0  0  0  0  0  0  0  0  0  0
   -0.4991    1.8489   30.7973 H   0  0  0  0  0  0  0  0  0  0  0  0
   -0.7410   -0.3224   32.4444 H   0  0  0  0  0  0  0  0  0  0  0  0
   -2.0230    0.7967   32.3021 H   0  0  0  0  0  0  0  0  0  0  0  0
   -2.6635   -1.6507   31.6014 H   0  0  0  0  0  0  0  0  0  0  0  0
   -3.1535   -0.3076   30.5660 H   0  0  0  0  0  0  0  0  0  0  0  0
   -2.0827   -1.8377   28.9518 H   0  0  0  0  0  0  0  0  0  0  0  0
  1  2  1  0
  2  3  2  3
  3  4  1  0
  4  5  1  0
  5  6  2  0
  6  7  1  0
  7  8  2  0
  8  9  1  0
  9 10  1  0
 10 11  1  0
  8 12  1  0
 12 13  1  0
 12 14  2  0
  3 15  1  0
 15 16  1  0
 16 17  1  0
 17 18  1  0
 18 19  1  0
 19 20  1  0
 20 21  1  0
 17 22  1  0
 22 23  1  0
 23 24  1  0
 24 25  1  0
 25 26  1  0
 26 27  1  0
 27 28  1  0
 28 29  1  0
 29 30  1  0
 30 31  1  0
 31 32  2  0
 31 33  2  0
 14  5  1  0
 31 15  1  0
 26 22  1  0
 30 26  1  0
  1 34  1  0
  1 35  1  0
  1 36  1  0
  2 37  1  0
  4 38  1  0
  4 39  1  0
  9 40  1  0
  9 41  1  0
 10 42  1  0
 10 43  1  0
 11 44  1  0
 11 45  1  0
 11 46  1  0
 13 47  1  0
 16 48  1  0
 17 49  1  0
 18 50  1  0
 19 51  1  0
 20 52  1  0
 20 53  1  0
 21 54  1  0
 22 55  1  0
 23 56  1  0
 23 57  1  0
 24 58  1  0
 24 59  1  0
 25 60  1  0
 25 61  1  0
 27 62  1  0
 28 63  1  0
 28 64  1  0
 29 65  1  0
 29 66  1  0
 30 67  1  0
M  END
>  <Energy>  (779) 
222.52243038887354

>  <compound_id>  (779) 
2842

>  <target_id>  (779) 
1

>  <reference_id>  (779) 
44

>  <inspiration_ids>  (779) 
[187, 44]

>  <energy_score>  (779) 
-111.7387966773183

>  <distance_score>  (779) 
1.8153169461976904

>  <path>  (779) 
/opt/xchem-fragalysis-2/maxwin/BulkDock/SCRATCH/505736/C2842-P44/C2842-P44.minimised.mol

>  <scratch_subdir>  (779) 
/opt/xchem-fragalysis-2/maxwin/BulkDock/SCRATCH/505736/C2842-P44

>  <fragmenstein_runtime>  (779) 
10.080348014831543

>  <fragmenstein_outcome>  (779) 
too moved

>  <fragmenstein_mode>  (779) 
expansion

>  <fragmenstein_error>  (779) 


$$$$
C2866-P187
     RDKit          3D

 48 51  0  0  0  0  0  0  0  0999 V2000
   -2.4319   -1.1295   32.9242 O   0  0  0  0  0  0  0  0  0  0  0  0
   -1.7469   -2.0866   32.0905 S   0  0  0  0  0  0  0  0  0  0  0  0
   -2.2938   -3.3922   31.7839 O   0  0  0  0  0  0  0  0  0  0  0  0
   -0.2434   -2.3142   32.7942 N   0  0  0  0  0  0  0  0  0  0  0  0
    0.7579   -2.9412   31.9631 C   0  0  0  0  0  0  0  0  0  0  0  0
    1.6677   -3.8275   32.7756 C   0  0  0  0  0  0  0  0  0  0  0  0
    2.4163   -4.8958   31.9771 C   0  0  0  0  0  0  0  0  0  0  0  0
    2.9723   -4.3677   30.7356 N   0  0  0  0  0  0  0  0  0  0  0  0
    2.0555   -4.7074   29.6447 C   0  0  0  0  0  0  0  0  0  0  0  0
    1.3184   -3.1534   28.8914 S   0  0  0  0  0  0  0  0  0  0  0  0
    2.8565   -2.0444   28.3597 C   0  0  0  0  0  0  0  0  0  0  0  0
    2.7971   -0.4657   28.1512 C   0  0  0  0  0  0  0  0  0  0  0  0
    1.6864    0.2707   27.7481 C   0  0  0  0  0  0  0  0  0  0  0  0
    1.7638    1.6621   27.5702 C   0  0  0  0  0  0  0  0  0  0  0  0
    2.8972    2.3826   27.6999 N   0  0  0  0  0  0  0  0  0  0  0  0
    3.9935    1.6781   28.0231 C   0  0  0  0  0  0  0  0  0  0  0  0
    3.9894    0.2960   28.2494 C   0  0  0  0  0  0  0  0  0  0  0  0
    1.2029   -5.8764   30.2317 C   0  0  0  0  0  0  0  0  0  0  0  0
   -0.2866   -5.8254   30.4387 C   0  0  0  0  0  0  0  0  0  0  0  0
   -0.5624   -6.0812   31.8523 N   0  0  0  0  0  0  0  0  0  0  0  0
    0.6562   -6.5263   32.3900 N   0  0  0  0  0  0  0  0  0  0  0  0
    1.7277   -6.1044   31.5795 N   0  0  0  0  0  0  0  0  0  0  0  0
   -1.5524   -1.3155   30.5319 C   0  0  0  0  0  0  0  0  0  0  0  0
   -1.7849   -1.6880   29.2251 C   0  0  0  0  0  0  0  0  0  0  0  0
   -1.6418   -0.5730   28.3601 C   0  0  0  0  0  0  0  0  0  0  0  0
   -1.2197    0.5574   28.9224 N   0  0  0  0  0  0  0  0  0  0  0  0
   -0.9321    0.2593   30.5287 S   0  0  0  0  0  0  0  0  0  0  0  0
    0.0407   -1.5205   33.3688 H   0  0  0  0  0  0  0  0  0  0  0  0
    0.2353   -3.5197   31.2246 H   0  0  0  0  0  0  0  0  0  0  0  0
    1.3378   -2.1427   31.4910 H   0  0  0  0  0  0  0  0  0  0  0  0
    1.1265   -4.2794   33.6158 H   0  0  0  0  0  0  0  0  0  0  0  0
    2.4119   -3.1770   33.2583 H   0  0  0  0  0  0  0  0  0  0  0  0
    3.2567   -5.2024   32.6118 H   0  0  0  0  0  0  0  0  0  0  0  0
    3.1185   -3.3678   30.7940 H   0  0  0  0  0  0  0  0  0  0  0  0
    2.6688   -5.1237   28.8367 H   0  0  0  0  0  0  0  0  0  0  0  0
    3.2131   -2.4802   27.4210 H   0  0  0  0  0  0  0  0  0  0  0  0
    3.6146   -2.2173   29.1283 H   0  0  0  0  0  0  0  0  0  0  0  0
    0.7549   -0.2370   27.5465 H   0  0  0  0  0  0  0  0  0  0  0  0
    0.8773    2.2284   27.2934 H   0  0  0  0  0  0  0  0  0  0  0  0
    4.9097    2.2543   28.1090 H   0  0  0  0  0  0  0  0  0  0  0  0
    4.9276   -0.1905   28.5033 H   0  0  0  0  0  0  0  0  0  0  0  0
    1.4166   -6.7603   29.6212 H   0  0  0  0  0  0  0  0  0  0  0  0
   -0.7287   -4.8921   30.0913 H   0  0  0  0  0  0  0  0  0  0  0  0
   -0.7392   -6.6488   29.8758 H   0  0  0  0  0  0  0  0  0  0  0  0
   -0.9277   -5.2359   32.3048 H   0  0  0  0  0  0  0  0  0  0  0  0
    0.7568   -6.4295   33.4064 H   0  0  0  0  0  0  0  0  0  0  0  0
   -2.1199   -2.6671   28.9220 H   0  0  0  0  0  0  0  0  0  0  0  0
   -1.8412   -0.5647   27.2942 H   0  0  0  0  0  0  0  0  0  0  0  0
  1  2  2  0
  2  3  2  0
  2  4  1  0
  4  5  1  0
  5  6  1  0
  6  7  1  0
  7  8  1  0
  8  9  1  0
  9 10  1  0
 10 11  1  0
 11 12  1  0
 12 13  2  0
 13 14  1  0
 14 15  2  0
 15 16  1  0
 16 17  2  0
  9 18  1  0
 18 19  1  0
 19 20  1  0
 20 21  1  0
 21 22  1  0
  2 23  1  0
 23 24  2  0
 24 25  1  0
 25 26  2  0
 26 27  1  0
 22  7  1  0
 27 23  1  0
 17 12  1  0
 22 18  1  0
  4 28  1  0
  5 29  1  0
  5 30  1  0
  6 31  1  0
  6 32  1  0
  7 33  1  0
  8 34  1  0
  9 35  1  0
 11 36  1  0
 11 37  1  0
 13 38  1  0
 14 39  1  0
 16 40  1  0
 17 41  1  0
 18 42  1  0
 19 43  1  0
 19 44  1  0
 20 45  1  0
 21 46  1  0
 24 47  1  0
 25 48  1  0
M  END
>  <Energy>  (780) 
28.581730700968038

>  <compound_id>  (780) 
2866

>  <target_id>  (780) 
1

>  <reference_id>  (780) 
187

>  <inspiration_ids>  (780) 
[187, 53]

>  <energy_score>  (780) 
-10.418538811642236

>  <distance_score>  (780) 
3.23639230578801

>  <path>  (780) 
/opt/xchem-fragalysis-2/maxwin/BulkDock/SCRATCH/505736/C2866-P187/C2866-P187.minimised.mol

>  <scratch_subdir>  (780) 
/opt/xchem-fragalysis-2/maxwin/BulkDock/SCRATCH/505736/C2866-P187

>  <fragmenstein_runtime>  (780) 
3.543757677078247

>  <fragmenstein_outcome>  (780) 
too moved

>  <fragmenstein_mode>  (780) 
expansion

>  <fragmenstein_error>  (780) 


$$$$
C2866-P53
     RDKit          3D

 48 51  0  0  0  0  0  0  0  0999 V2000
   -2.4529   -1.1351   32.9078 O   0  0  0  0  0  0  0  0  0  0  0  0
   -1.7581   -2.0643   32.0497 S   0  0  0  0  0  0  0  0  0  0  0  0
   -2.3194   -3.3607   31.7316 O   0  0  0  0  0  0  0  0  0  0  0  0
   -0.2514   -2.3299   32.7621 N   0  0  0  0  0  0  0  0  0  0  0  0
    0.7208   -3.0160   31.9157 C   0  0  0  0  0  0  0  0  0  0  0  0
    1.6942   -3.8416   32.7239 C   0  0  0  0  0  0  0  0  0  0  0  0
    2.4258   -4.9484   31.9576 C   0  0  0  0  0  0  0  0  0  0  0  0
    2.8666   -4.4622   30.6529 N   0  0  0  0  0  0  0  0  0  0  0  0
    1.8828   -4.9178   29.6591 C   0  0  0  0  0  0  0  0  0  0  0  0
    1.1286   -3.4089   28.8079 S   0  0  0  0  0  0  0  0  0  0  0  0
    2.6861   -2.2101   28.4970 C   0  0  0  0  0  0  0  0  0  0  0  0
    2.6056   -0.6912   27.9952 C   0  0  0  0  0  0  0  0  0  0  0  0
    2.0254    0.3390   28.7412 C   0  0  0  0  0  0  0  0  0  0  0  0
    2.1302    1.6837   28.3484 C   0  0  0  0  0  0  0  0  0  0  0  0
    2.8523    2.1061   27.2933 N   0  0  0  0  0  0  0  0  0  0  0  0
    3.4656    1.1349   26.5941 C   0  0  0  0  0  0  0  0  0  0  0  0
    3.3725   -0.2327   26.8995 C   0  0  0  0  0  0  0  0  0  0  0  0
    1.1177   -6.0773   30.3810 C   0  0  0  0  0  0  0  0  0  0  0  0
   -0.3560   -6.1235   30.6880 C   0  0  0  0  0  0  0  0  0  0  0  0
   -0.4295   -6.8803   31.9360 N   0  0  0  0  0  0  0  0  0  0  0  0
    0.7348   -6.5026   32.6474 N   0  0  0  0  0  0  0  0  0  0  0  0
    1.7612   -6.2142   31.6973 N   0  0  0  0  0  0  0  0  0  0  0  0
   -1.5708   -1.2787   30.5055 C   0  0  0  0  0  0  0  0  0  0  0  0
   -1.7754   -1.6271   29.1874 C   0  0  0  0  0  0  0  0  0  0  0  0
   -1.5089   -0.5272   28.3277 C   0  0  0  0  0  0  0  0  0  0  0  0
   -1.1143    0.5947   28.9242 N   0  0  0  0  0  0  0  0  0  0  0  0
   -1.0001    0.3039   30.5527 S   0  0  0  0  0  0  0  0  0  0  0  0
   -0.4236   -2.7811   33.6642 H   0  0  0  0  0  0  0  0  0  0  0  0
    0.1692   -3.6382   31.2395 H   0  0  0  0  0  0  0  0  0  0  0  0
    1.2620   -2.2438   31.3608 H   0  0  0  0  0  0  0  0  0  0  0  0
    1.2124   -4.2531   33.6194 H   0  0  0  0  0  0  0  0  0  0  0  0
    2.4496   -3.1494   33.1245 H   0  0  0  0  0  0  0  0  0  0  0  0
    3.3179   -5.1799   32.5543 H   0  0  0  0  0  0  0  0  0  0  0  0
    3.7502   -4.9219   30.4483 H   0  0  0  0  0  0  0  0  0  0  0  0
    2.4535   -5.3825   28.8447 H   0  0  0  0  0  0  0  0  0  0  0  0
    3.2338   -2.1727   29.4438 H   0  0  0  0  0  0  0  0  0  0  0  0
    3.2938   -2.7627   27.7723 H   0  0  0  0  0  0  0  0  0  0  0  0
    1.5305    0.0998   29.6701 H   0  0  0  0  0  0  0  0  0  0  0  0
    1.6389    2.4654   28.9222 H   0  0  0  0  0  0  0  0  0  0  0  0
    4.0513    1.4694   25.7415 H   0  0  0  0  0  0  0  0  0  0  0  0
    3.9226   -0.9363   26.2808 H   0  0  0  0  0  0  0  0  0  0  0  0
    1.3546   -6.9973   29.8369 H   0  0  0  0  0  0  0  0  0  0  0  0
   -0.8155   -5.1522   30.8090 H   0  0  0  0  0  0  0  0  0  0  0  0
   -0.9017   -6.6727   29.9181 H   0  0  0  0  0  0  0  0  0  0  0  0
   -1.2816   -6.6335   32.4481 H   0  0  0  0  0  0  0  0  0  0  0  0
    1.0179   -7.2396   33.3063 H   0  0  0  0  0  0  0  0  0  0  0  0
   -2.1086   -2.5985   28.8641 H   0  0  0  0  0  0  0  0  0  0  0  0
   -1.6004   -0.5235   27.2468 H   0  0  0  0  0  0  0  0  0  0  0  0
  1  2  2  0
  2  3  2  0
  2  4  1  0
  4  5  1  0
  5  6  1  0
  6  7  1  0
  7  8  1  0
  8  9  1  0
  9 10  1  0
 10 11  1  0
 11 12  1  0
 12 13  2  0
 13 14  1  0
 14 15  2  0
 15 16  1  0
 16 17  2  0
  9 18  1  0
 18 19  1  0
 19 20  1  0
 20 21  1  0
 21 22  1  0
  2 23  1  0
 23 24  2  0
 24 25  1  0
 25 26  2  0
 26 27  1  0
 22  7  1  0
 27 23  1  0
 17 12  1  0
 22 18  1  0
  4 28  1  0
  5 29  1  0
  5 30  1  0
  6 31  1  0
  6 32  1  0
  7 33  1  0
  8 34  1  0
  9 35  1  0
 11 36  1  0
 11 37  1  0
 13 38  1  0
 14 39  1  0
 16 40  1  0
 17 41  1  0
 18 42  1  0
 19 43  1  0
 19 44  1  0
 20 45  1  0
 21 46  1  0
 24 47  1  0
 25 48  1  0
M  END
>  <Energy>  (781) 
22.237731443250766

>  <compound_id>  (781) 
2866

>  <target_id>  (781) 
1

>  <reference_id>  (781) 
53

>  <inspiration_ids>  (781) 
[187, 53]

>  <energy_score>  (781) 
-16.762538069358072

>  <distance_score>  (781) 
3.300628574081147

>  <path>  (781) 
/opt/xchem-fragalysis-2/maxwin/BulkDock/SCRATCH/505736/C2866-P53/C2866-P53.minimised.mol

>  <scratch_subdir>  (781) 
/opt/xchem-fragalysis-2/maxwin/BulkDock/SCRATCH/505736/C2866-P53

>  <fragmenstein_runtime>  (781) 
3.617391586303711

>  <fragmenstein_outcome>  (781) 
too moved

>  <fragmenstein_mode>  (781) 
expansion

>  <fragmenstein_error>  (781) 


$$$$
C2866-P187
     RDKit          2D

  0  0  0  0  0  0  0  0  0  0999 V2000
M  END
>  <compound_id>  (782) 
2866

>  <target_id>  (782) 
1

>  <reference_id>  (782) 
187

>  <inspiration_ids>  (782) 
[187, 56]

>  <energy_score>  (782) 
nan

>  <distance_score>  (782) 
nan

>  <path>  (782) 
/opt/xchem-fragalysis-2/maxwin/BulkDock/SCRATCH/505736/C2866-P187/C2866-P187.minimised.mol

>  <scratch_subdir>  (782) 
/opt/xchem-fragalysis-2/maxwin/BulkDock/SCRATCH/505736/C2866-P187

>  <fragmenstein_runtime>  (782) 
0.37479305267333984

>  <fragmenstein_outcome>  (782) 
too distant

>  <fragmenstein_mode>  (782) 
expansion

>  <fragmenstein_error>  (782) 
DistanceError: hit1

$$$$
C2845-P187
     RDKit          3D

 42 46  0  0  0  0  0  0  0  0999 V2000
   -2.4459    0.3922   26.8609 O   0  0  0  0  0  0  0  0  0  0  0  0
   -1.5251   -0.2002   27.4144 C   0  0  0  0  0  0  0  0  0  0  0  0
   -1.5884   -1.4831   27.9887 N   0  0  0  0  0  0  0  0  0  0  0  0
   -0.5215   -2.1110   28.4392 C   0  0  0  0  0  0  0  0  0  0  0  0
   -0.8965   -3.8277   29.0395 S   0  0  0  0  0  0  0  0  0  0  0  0
    0.1953   -4.7384   30.0148 C   0  0  0  0  0  0  0  0  0  0  0  0
    1.3990   -4.3179   30.1634 N   0  0  0  0  0  0  0  0  0  0  0  0
    2.1043   -4.8397   31.2162 C   0  0  0  0  0  0  0  0  0  0  0  0
    3.1808   -3.9322   31.6567 C   0  0  0  0  0  0  0  0  0  0  0  0
    2.5033   -3.0840   32.7231 C   0  0  0  0  0  0  0  0  0  0  0  0
    1.4796   -2.1881   32.1380 N   0  0  0  0  0  0  0  0  0  0  0  0
   -0.0866   -2.3397   32.7866 S   0  0  0  0  0  0  0  0  0  0  0  0
   -0.0396   -1.8041   34.1210 O   0  0  0  0  0  0  0  0  0  0  0  0
   -0.6223   -3.6353   32.4458 O   0  0  0  0  0  0  0  0  0  0  0  0
   -1.0027   -1.2065   31.8835 C   0  0  0  0  0  0  0  0  0  0  0  0
   -0.7013   -0.2075   30.9941 C   0  0  0  0  0  0  0  0  0  0  0  0
   -1.8967    0.2812   30.4454 C   0  0  0  0  0  0  0  0  0  0  0  0
   -3.0128   -0.1408   31.0107 N   0  0  0  0  0  0  0  0  0  0  0  0
   -2.6632   -1.2791   32.1296 S   0  0  0  0  0  0  0  0  0  0  0  0
    1.8311   -5.8545   31.9659 N   0  0  0  0  0  0  0  0  0  0  0  0
    0.6515   -6.3776   31.6838 N   0  0  0  0  0  0  0  0  0  0  0  0
    0.1938   -7.4497   32.3215 N   0  0  0  0  0  0  0  0  0  0  0  0
   -0.9173   -7.7008   31.6342 C   0  0  0  0  0  0  0  0  0  0  0  0
   -1.1486   -6.8522   30.5837 N   0  0  0  0  0  0  0  0  0  0  0  0
   -0.1964   -5.9494   30.7165 C   0  0  0  0  0  0  0  0  0  0  0  0
    0.7543   -1.5281   28.4382 N   0  0  0  0  0  0  0  0  0  0  0  0
    0.8339   -0.1967   28.1075 C   0  0  0  0  0  0  0  0  0  0  0  0
    1.9255    0.7049   28.2523 C   0  0  0  0  0  0  0  0  0  0  0  0
    1.5682    2.0115   27.9580 C   0  0  0  0  0  0  0  0  0  0  0  0
   -0.0635    2.1368   27.4611 S   0  0  0  0  0  0  0  0  0  0  0  0
   -0.2696    0.4557   27.6364 C   0  0  0  0  0  0  0  0  0  0  0  0
    4.0083   -4.5033   32.0881 H   0  0  0  0  0  0  0  0  0  0  0  0
    3.5590   -3.3254   30.8278 H   0  0  0  0  0  0  0  0  0  0  0  0
    2.0765   -3.7042   33.5207 H   0  0  0  0  0  0  0  0  0  0  0  0
    3.2593   -2.4507   33.2031 H   0  0  0  0  0  0  0  0  0  0  0  0
    1.7680   -1.2124   32.2547 H   0  0  0  0  0  0  0  0  0  0  0  0
    0.2966    0.0937   30.7209 H   0  0  0  0  0  0  0  0  0  0  0  0
   -2.0126    1.0064   29.6539 H   0  0  0  0  0  0  0  0  0  0  0  0
   -1.5652   -8.5288   31.8983 H   0  0  0  0  0  0  0  0  0  0  0  0
    1.5128   -2.0677   28.8383 H   0  0  0  0  0  0  0  0  0  0  0  0
    2.9173    0.4333   28.5908 H   0  0  0  0  0  0  0  0  0  0  0  0
    2.1890    2.8966   28.0032 H   0  0  0  0  0  0  0  0  0  0  0  0
  1  2  2  0
  2  3  1  0
  3  4  2  0
  4  5  1  0
  5  6  1  0
  6  7  2  0
  7  8  1  0
  8  9  1  0
  9 10  1  0
 10 11  1  0
 11 12  1  0
 12 13  2  0
 12 14  2  0
 12 15  1  0
 15 16  2  0
 16 17  1  0
 17 18  2  0
 18 19  1  0
  8 20  2  0
 20 21  1  0
 21 22  1  0
 22 23  2  0
 23 24  1  0
 24 25  2  0
  4 26  1  0
 26 27  1  0
 27 28  1  0
 28 29  2  0
 29 30  1  0
 30 31  1  0
 31  2  1  0
 25  6  1  0
 31 27  2  0
 19 15  1  0
 25 21  1  0
  9 32  1  0
  9 33  1  0
 10 34  1  0
 10 35  1  0
 11 36  1  0
 16 37  1  0
 17 38  1  0
 23 39  1  0
 26 40  1  0
 28 41  1  0
 29 42  1  0
M  END
>  <Energy>  (783) 
-121.92066851558408

>  <compound_id>  (783) 
2845

>  <target_id>  (783) 
1

>  <reference_id>  (783) 
187

>  <inspiration_ids>  (783) 
[187, 57]

>  <energy_score>  (783) 
-29.551557919094314

>  <distance_score>  (783) 
3.147390568188036

>  <path>  (783) 
/opt/xchem-fragalysis-2/maxwin/BulkDock/SCRATCH/505736/C2845-P187/C2845-P187.minimised.mol

>  <scratch_subdir>  (783) 
/opt/xchem-fragalysis-2/maxwin/BulkDock/SCRATCH/505736/C2845-P187

>  <fragmenstein_runtime>  (783) 
7.189260721206665

>  <fragmenstein_outcome>  (783) 
too moved

>  <fragmenstein_mode>  (783) 
expansion

>  <fragmenstein_error>  (783) 


$$$$
C2845-P57
     RDKit          3D

 42 46  0  0  0  0  0  0  0  0999 V2000
    0.1388    1.0906   30.4206 O   0  0  0  0  0  0  0  0  0  0  0  0
    0.6544    0.3921   29.5555 C   0  0  0  0  0  0  0  0  0  0  0  0
    0.8349   -1.0134   29.6855 N   0  0  0  0  0  0  0  0  0  0  0  0
    1.4279   -1.6769   28.7310 C   0  0  0  0  0  0  0  0  0  0  0  0
    1.2115   -3.5941   28.6146 S   0  0  0  0  0  0  0  0  0  0  0  0
    1.2862   -4.3321   30.1888 C   0  0  0  0  0  0  0  0  0  0  0  0
    2.1200   -3.8566   31.0408 N   0  0  0  0  0  0  0  0  0  0  0  0
    1.9532   -4.2827   32.3283 C   0  0  0  0  0  0  0  0  0  0  0  0
    1.9346   -3.1431   33.2659 C   0  0  0  0  0  0  0  0  0  0  0  0
    0.7431   -2.2668   32.8352 C   0  0  0  0  0  0  0  0  0  0  0  0
   -0.4304   -3.1050   32.4862 N   0  0  0  0  0  0  0  0  0  0  0  0
   -1.8489   -2.3019   32.0787 S   0  0  0  0  0  0  0  0  0  0  0  0
   -1.9949   -1.2027   33.0016 O   0  0  0  0  0  0  0  0  0  0  0  0
   -2.8228   -3.3631   31.9872 O   0  0  0  0  0  0  0  0  0  0  0  0
   -1.8506   -1.7034   30.4551 C   0  0  0  0  0  0  0  0  0  0  0  0
   -1.7403   -2.2672   29.2014 C   0  0  0  0  0  0  0  0  0  0  0  0
   -1.8877   -1.2821   28.1812 C   0  0  0  0  0  0  0  0  0  0  0  0
   -2.0897   -0.0386   28.6010 N   0  0  0  0  0  0  0  0  0  0  0  0
   -2.3050   -0.0968   30.2501 S   0  0  0  0  0  0  0  0  0  0  0  0
    1.5371   -5.4318   32.7479 N   0  0  0  0  0  0  0  0  0  0  0  0
    0.8924   -6.0612   31.7777 N   0  0  0  0  0  0  0  0  0  0  0  0
    0.2586   -7.2109   31.9940 N   0  0  0  0  0  0  0  0  0  0  0  0
   -0.3629   -7.3781   30.8296 C   0  0  0  0  0  0  0  0  0  0  0  0
   -0.2271   -6.3557   29.9304 N   0  0  0  0  0  0  0  0  0  0  0  0
    0.5964   -5.5442   30.5487 C   0  0  0  0  0  0  0  0  0  0  0  0
    2.0976   -1.0471   27.6615 N   0  0  0  0  0  0  0  0  0  0  0  0
    1.9172    0.2962   27.4858 C   0  0  0  0  0  0  0  0  0  0  0  0
    2.5159    1.2082   26.5770 C   0  0  0  0  0  0  0  0  0  0  0  0
    1.9628    2.4790   26.6667 C   0  0  0  0  0  0  0  0  0  0  0  0
    0.7851    2.5768   27.9000 S   0  0  0  0  0  0  0  0  0  0  0  0
    1.1142    0.9720   28.3420 C   0  0  0  0  0  0  0  0  0  0  0  0
    1.7965   -3.5025   34.2916 H   0  0  0  0  0  0  0  0  0  0  0  0
    2.8700   -2.5776   33.2174 H   0  0  0  0  0  0  0  0  0  0  0  0
    1.0245   -1.6366   31.9940 H   0  0  0  0  0  0  0  0  0  0  0  0
    0.4933   -1.6079   33.6739 H   0  0  0  0  0  0  0  0  0  0  0  0
   -0.6900   -3.7249   33.2642 H   0  0  0  0  0  0  0  0  0  0  0  0
   -1.5854   -3.3193   29.0288 H   0  0  0  0  0  0  0  0  0  0  0  0
   -1.8554   -1.4494   27.1137 H   0  0  0  0  0  0  0  0  0  0  0  0
   -0.9225   -8.2789   30.6345 H   0  0  0  0  0  0  0  0  0  0  0  0
    2.5855   -1.6309   26.9979 H   0  0  0  0  0  0  0  0  0  0  0  0
    3.2742    0.9535   25.8450 H   0  0  0  0  0  0  0  0  0  0  0  0
    2.1944    3.3471   26.0638 H   0  0  0  0  0  0  0  0  0  0  0  0
  1  2  2  0
  2  3  1  0
  3  4  2  0
  4  5  1  0
  5  6  1  0
  6  7  2  0
  7  8  1  0
  8  9  1  0
  9 10  1  0
 10 11  1  0
 11 12  1  0
 12 13  2  0
 12 14  2  0
 12 15  1  0
 15 16  2  0
 16 17  1  0
 17 18  2  0
 18 19  1  0
  8 20  2  0
 20 21  1  0
 21 22  1  0
 22 23  2  0
 23 24  1  0
 24 25  2  0
  4 26  1  0
 26 27  1  0
 27 28  1  0
 28 29  2  0
 29 30  1  0
 30 31  1  0
 31  2  1  0
 25  6  1  0
 31 27  2  0
 19 15  1  0
 25 21  1  0
  9 32  1  0
  9 33  1  0
 10 34  1  0
 10 35  1  0
 11 36  1  0
 16 37  1  0
 17 38  1  0
 23 39  1  0
 26 40  1  0
 28 41  1  0
 29 42  1  0
M  END
>  <Energy>  (784) 
-112.65598614911741

>  <compound_id>  (784) 
2845

>  <target_id>  (784) 
1

>  <reference_id>  (784) 
57

>  <inspiration_ids>  (784) 
[187, 57]

>  <energy_score>  (784) 
-20.286875552626924

>  <distance_score>  (784) 
3.329537014121993

>  <path>  (784) 
/opt/xchem-fragalysis-2/maxwin/BulkDock/SCRATCH/505736/C2845-P57/C2845-P57.minimised.mol

>  <scratch_subdir>  (784) 
/opt/xchem-fragalysis-2/maxwin/BulkDock/SCRATCH/505736/C2845-P57

>  <fragmenstein_runtime>  (784) 
7.17303991317749

>  <fragmenstein_outcome>  (784) 
too moved

>  <fragmenstein_mode>  (784) 
expansion

>  <fragmenstein_error>  (784) 


$$$$
C2845-P187
     RDKit          2D

  0  0  0  0  0  0  0  0  0  0999 V2000
M  END
>  <compound_id>  (785) 
2845

>  <target_id>  (785) 
1

>  <reference_id>  (785) 
187

>  <inspiration_ids>  (785) 
[187, 59]

>  <energy_score>  (785) 
nan

>  <distance_score>  (785) 
nan

>  <path>  (785) 
/opt/xchem-fragalysis-2/maxwin/BulkDock/SCRATCH/505736/C2845-P187/C2845-P187.minimised.mol

>  <scratch_subdir>  (785) 
/opt/xchem-fragalysis-2/maxwin/BulkDock/SCRATCH/505736/C2845-P187

>  <fragmenstein_runtime>  (785) 
0.3374297618865967

>  <fragmenstein_outcome>  (785) 
too distant

>  <fragmenstein_mode>  (785) 
expansion

>  <fragmenstein_error>  (785) 
DistanceError: hit1

$$$$
C2846-P187
     RDKit          3D

 49 52  0  0  0  0  0  0  0  0999 V2000
   -0.6412   -7.1112   30.0543 O   0  0  0  0  0  0  0  0  0  0  0  0
    0.1451   -6.2168   30.3162 C   0  0  0  0  0  0  0  0  0  0  0  0
    1.0691   -6.2419   31.3349 N   0  0  0  0  0  0  0  0  0  0  0  0
    1.5722   -5.0428   31.4013 C   0  0  0  0  0  0  0  0  0  0  0  0
    2.1240   -4.5403   32.6847 C   0  0  0  0  0  0  0  0  0  0  0  0
    1.0646   -4.7501   33.7973 C   0  0  0  0  0  0  0  0  0  0  0  0
   -0.0551   -3.7529   34.0080 N   0  0  0  0  0  0  0  0  0  0  0  0
   -0.6563   -3.0625   32.6524 S   0  0  0  0  0  0  0  0  0  0  0  0
    0.4321   -2.2387   32.1938 O   0  0  0  0  0  0  0  0  0  0  0  0
   -1.2491   -4.1406   31.8908 O   0  0  0  0  0  0  0  0  0  0  0  0
   -1.8997   -1.9198   32.5563 C   0  0  0  0  0  0  0  0  0  0  0  0
   -2.6097   -1.6531   31.4132 C   0  0  0  0  0  0  0  0  0  0  0  0
   -2.9235   -0.2980   31.4313 C   0  0  0  0  0  0  0  0  0  0  0  0
   -2.8559    0.3274   32.6027 N   0  0  0  0  0  0  0  0  0  0  0  0
   -1.9757   -0.6356   33.6266 S   0  0  0  0  0  0  0  0  0  0  0  0
    1.2591   -4.1664   30.2696 C   0  0  0  0  0  0  0  0  0  0  0  0
    1.5224   -2.8067   29.9488 C   0  0  0  0  0  0  0  0  0  0  0  0
    0.5725   -2.0758   29.1669 C   0  0  0  0  0  0  0  0  0  0  0  0
    0.5172   -0.2543   29.2772 S   0  0  0  0  0  0  0  0  0  0  0  0
   -0.4487    0.0694   30.3072 O   0  0  0  0  0  0  0  0  0  0  0  0
    1.8988    0.1396   29.4562 O   0  0  0  0  0  0  0  0  0  0  0  0
   -0.0682    0.5600   27.8286 N   0  0  0  0  0  0  0  0  0  0  0  0
   -1.5417    0.4187   27.5004 C   0  0  0  0  0  0  0  0  0  0  0  0
   -2.2445    1.7204   27.0055 C   0  0  0  0  0  0  0  0  0  0  0  0
   -1.4647    2.5174   26.0645 N   0  0  0  0  0  0  0  0  0  0  0  0
   -0.1791    2.8592   26.6923 C   0  0  0  0  0  0  0  0  0  0  0  0
    0.2563    2.0376   27.9299 C   0  0  0  0  0  0  0  0  0  0  0  0
   -0.4889   -2.7788   28.6246 C   0  0  0  0  0  0  0  0  0  0  0  0
   -0.6191   -4.1655   28.8771 C   0  0  0  0  0  0  0  0  0  0  0  0
    0.2341   -4.8632   29.6970 C   0  0  0  0  0  0  0  0  0  0  0  0
    2.4705   -3.5071   32.6273 H   0  0  0  0  0  0  0  0  0  0  0  0
    2.9992   -5.1599   32.9162 H   0  0  0  0  0  0  0  0  0  0  0  0
    0.6012   -5.7421   33.7317 H   0  0  0  0  0  0  0  0  0  0  0  0
    1.6103   -4.7464   34.7504 H   0  0  0  0  0  0  0  0  0  0  0  0
   -0.8068   -4.1637   34.5735 H   0  0  0  0  0  0  0  0  0  0  0  0
   -2.5894   -2.2892   30.5421 H   0  0  0  0  0  0  0  0  0  0  0  0
   -3.2129    0.2656   30.5641 H   0  0  0  0  0  0  0  0  0  0  0  0
    2.2931   -2.2587   30.4904 H   0  0  0  0  0  0  0  0  0  0  0  0
   -1.6407   -0.3372   26.7269 H   0  0  0  0  0  0  0  0  0  0  0  0
   -2.0798    0.0465   28.3744 H   0  0  0  0  0  0  0  0  0  0  0  0
   -3.1960    1.4552   26.5350 H   0  0  0  0  0  0  0  0  0  0  0  0
   -2.4926    2.3387   27.8759 H   0  0  0  0  0  0  0  0  0  0  0  0
   -1.9735    3.3761   25.8412 H   0  0  0  0  0  0  0  0  0  0  0  0
    0.5915    2.7669   25.9190 H   0  0  0  0  0  0  0  0  0  0  0  0
   -0.1915    3.9183   26.9784 H   0  0  0  0  0  0  0  0  0  0  0  0
    1.3383    2.1644   28.0456 H   0  0  0  0  0  0  0  0  0  0  0  0
   -0.2320    2.4482   28.8232 H   0  0  0  0  0  0  0  0  0  0  0  0
   -1.2655   -2.2781   28.0541 H   0  0  0  0  0  0  0  0  0  0  0  0
   -1.4428   -4.6845   28.4315 H   0  0  0  0  0  0  0  0  0  0  0  0
  1  2  2  0
  2  3  1  0
  3  4  2  0
  4  5  1  0
  5  6  1  0
  6  7  1  0
  7  8  1  0
  8  9  2  0
  8 10  2  0
  8 11  1  0
 11 12  2  0
 12 13  1  0
 13 14  2  0
 14 15  1  0
  4 16  1  0
 16 17  2  0
 17 18  1  0
 18 19  1  0
 19 20  2  0
 19 21  2  0
 19 22  1  0
 22 23  1  0
 23 24  1  0
 24 25  1  0
 25 26  1  0
 26 27  1  0
 18 28  2  0
 28 29  1  0
 29 30  2  0
 30  2  1  0
 15 11  1  0
 30 16  1  0
 27 22  1  0
  5 31  1  0
  5 32  1  0
  6 33  1  0
  6 34  1  0
  7 35  1  0
 12 36  1  0
 13 37  1  0
 17 38  1  0
 23 39  1  0
 23 40  1  0
 24 41  1  0
 24 42  1  0
 25 43  1  0
 26 44  1  0
 26 45  1  0
 27 46  1  0
 27 47  1  0
 28 48  1  0
 29 49  1  0
M  END
>  <Energy>  (786) 
68.234049541379889

>  <compound_id>  (786) 
2846

>  <target_id>  (786) 
1

>  <reference_id>  (786) 
187

>  <inspiration_ids>  (786) 
[187, 70]

>  <energy_score>  (786) 
-2.954161422189088

>  <distance_score>  (786) 
3.0452268120062946

>  <path>  (786) 
/opt/xchem-fragalysis-2/maxwin/BulkDock/SCRATCH/505736/C2846-P187/C2846-P187.minimised.mol

>  <scratch_subdir>  (786) 
/opt/xchem-fragalysis-2/maxwin/BulkDock/SCRATCH/505736/C2846-P187

>  <fragmenstein_runtime>  (786) 
9.534152746200562

>  <fragmenstein_outcome>  (786) 
too moved

>  <fragmenstein_mode>  (786) 
expansion

>  <fragmenstein_error>  (786) 


$$$$
C2846-P70
     RDKit          3D

 49 52  0  0  0  0  0  0  0  0999 V2000
   -1.4971   -6.7218   32.3055 O   0  0  0  0  0  0  0  0  0  0  0  0
   -0.9058   -5.9351   31.5926 C   0  0  0  0  0  0  0  0  0  0  0  0
    0.1565   -6.2420   30.7793 N   0  0  0  0  0  0  0  0  0  0  0  0
    0.3971   -5.1712   30.0902 C   0  0  0  0  0  0  0  0  0  0  0  0
    1.7916   -4.8139   29.7259 C   0  0  0  0  0  0  0  0  0  0  0  0
    2.4292   -4.0813   30.9151 C   0  0  0  0  0  0  0  0  0  0  0  0
    1.4139   -3.4043   31.7453 N   0  0  0  0  0  0  0  0  0  0  0  0
    1.5433   -1.7822   32.1032 S   0  0  0  0  0  0  0  0  0  0  0  0
    0.2809   -1.3642   32.6609 O   0  0  0  0  0  0  0  0  0  0  0  0
    2.7368   -1.7211   32.8936 O   0  0  0  0  0  0  0  0  0  0  0  0
    1.8636   -0.9032   30.6143 C   0  0  0  0  0  0  0  0  0  0  0  0
    1.8724   -1.1882   29.2592 C   0  0  0  0  0  0  0  0  0  0  0  0
    2.1203   -0.0256   28.4909 C   0  0  0  0  0  0  0  0  0  0  0  0
    2.3819    1.0830   29.1713 N   0  0  0  0  0  0  0  0  0  0  0  0
    2.3562    0.7253   30.7984 S   0  0  0  0  0  0  0  0  0  0  0  0
   -0.6303   -4.1268   30.1683 C   0  0  0  0  0  0  0  0  0  0  0  0
   -0.7874   -2.8648   29.5191 C   0  0  0  0  0  0  0  0  0  0  0  0
   -1.4896   -1.8734   30.2090 C   0  0  0  0  0  0  0  0  0  0  0  0
   -1.4920   -0.0622   29.8908 S   0  0  0  0  0  0  0  0  0  0  0  0
   -2.8504    0.3194   30.1660 O   0  0  0  0  0  0  0  0  0  0  0  0
   -0.4849    0.4877   30.7620 O   0  0  0  0  0  0  0  0  0  0  0  0
   -1.0995    0.4585   28.2812 N   0  0  0  0  0  0  0  0  0  0  0  0
   -0.6951    1.9512   28.2202 C   0  0  0  0  0  0  0  0  0  0  0  0
   -0.6661    2.5223   26.7785 C   0  0  0  0  0  0  0  0  0  0  0  0
   -1.9964    2.5432   26.1775 N   0  0  0  0  0  0  0  0  0  0  0  0
   -2.8531    1.5258   26.7836 C   0  0  0  0  0  0  0  0  0  0  0  0
   -2.1206    0.2268   27.2330 C   0  0  0  0  0  0  0  0  0  0  0  0
   -2.0539   -2.2293   31.4672 C   0  0  0  0  0  0  0  0  0  0  0  0
   -1.8756   -3.5053   32.0596 C   0  0  0  0  0  0  0  0  0  0  0  0
   -1.2342   -4.4931   31.3578 C   0  0  0  0  0  0  0  0  0  0  0  0
    1.8050   -4.2256   28.8081 H   0  0  0  0  0  0  0  0  0  0  0  0
    2.3750   -5.7137   29.5687 H   0  0  0  0  0  0  0  0  0  0  0  0
    2.9377   -4.8120   31.5574 H   0  0  0  0  0  0  0  0  0  0  0  0
    3.2076   -3.3997   30.5610 H   0  0  0  0  0  0  0  0  0  0  0  0
    1.2698   -3.9009   32.6328 H   0  0  0  0  0  0  0  0  0  0  0  0
    1.7175   -2.1512   28.8166 H   0  0  0  0  0  0  0  0  0  0  0  0
    2.1502    0.0347   27.4101 H   0  0  0  0  0  0  0  0  0  0  0  0
   -0.3055   -2.6553   28.5736 H   0  0  0  0  0  0  0  0  0  0  0  0
   -1.4136    2.5405   28.7844 H   0  0  0  0  0  0  0  0  0  0  0  0
    0.2756    2.0948   28.6825 H   0  0  0  0  0  0  0  0  0  0  0  0
   -0.2740    3.5444   26.7992 H   0  0  0  0  0  0  0  0  0  0  0  0
    0.0146    1.9235   26.1674 H   0  0  0  0  0  0  0  0  0  0  0  0
   -2.0022    2.5950   25.1682 H   0  0  0  0  0  0  0  0  0  0  0  0
   -3.3300    1.9974   27.6416 H   0  0  0  0  0  0  0  0  0  0  0  0
   -3.6578    1.2862   26.0914 H   0  0  0  0  0  0  0  0  0  0  0  0
   -2.7918   -0.5723   27.5408 H   0  0  0  0  0  0  0  0  0  0  0  0
   -1.5823   -0.1608   26.3770 H   0  0  0  0  0  0  0  0  0  0  0  0
   -2.5215   -1.4540   32.0795 H   0  0  0  0  0  0  0  0  0  0  0  0
   -2.1683   -3.6315   33.0888 H   0  0  0  0  0  0  0  0  0  0  0  0
  1  2  2  0
  2  3  1  0
  3  4  2  0
  4  5  1  0
  5  6  1  0
  6  7  1  0
  7  8  1  0
  8  9  2  0
  8 10  2  0
  8 11  1  0
 11 12  2  0
 12 13  1  0
 13 14  2  0
 14 15  1  0
  4 16  1  0
 16 17  2  0
 17 18  1  0
 18 19  1  0
 19 20  2  0
 19 21  2  0
 19 22  1  0
 22 23  1  0
 23 24  1  0
 24 25  1  0
 25 26  1  0
 26 27  1  0
 18 28  2  0
 28 29  1  0
 29 30  2  0
 30  2  1  0
 15 11  1  0
 30 16  1  0
 27 22  1  0
  5 31  1  0
  5 32  1  0
  6 33  1  0
  6 34  1  0
  7 35  1  0
 12 36  1  0
 13 37  1  0
 17 38  1  0
 23 39  1  0
 23 40  1  0
 24 41  1  0
 24 42  1  0
 25 43  1  0
 26 44  1  0
 26 45  1  0
 27 46  1  0
 27 47  1  0
 28 48  1  0
 29 49  1  0
M  END
>  <Energy>  (787) 
67.641155270761317

>  <compound_id>  (787) 
2846

>  <target_id>  (787) 
1

>  <reference_id>  (787) 
70

>  <inspiration_ids>  (787) 
[187, 70]

>  <energy_score>  (787) 
-3.5470556928068504

>  <distance_score>  (787) 
2.7668873287531452

>  <path>  (787) 
/opt/xchem-fragalysis-2/maxwin/BulkDock/SCRATCH/505736/C2846-P70/C2846-P70.minimised.mol

>  <scratch_subdir>  (787) 
/opt/xchem-fragalysis-2/maxwin/BulkDock/SCRATCH/505736/C2846-P70

>  <fragmenstein_runtime>  (787) 
8.871997594833374

>  <fragmenstein_outcome>  (787) 
too moved

>  <fragmenstein_mode>  (787) 
expansion

>  <fragmenstein_error>  (787) 


$$$$
C2657-P187
     RDKit          3D

 50 53  0  0  0  0  0  0  0  0999 V2000
    1.3786   -1.8260   35.8717 O   0  0  0  0  0  0  0  0  0  0  0  0
    0.9865   -2.8074   35.2367 C   0  0  0  0  0  0  0  0  0  0  0  0
   -0.4646   -3.3322   35.2616 C   0  0  0  0  0  0  0  0  0  0  0  0
   -0.5695   -5.0638   35.8068 S   0  0  0  0  0  0  0  0  0  0  0  0
   -1.4719   -2.3278   36.3420 Cl  0  0  0  0  0  0  0  0  0  0  0  0
    1.8795   -3.4271   34.3623 N   0  0  0  0  0  0  0  0  0  0  0  0
    2.7075   -4.5053   34.9019 C   0  0  0  0  0  0  0  0  0  0  0  0
    4.0065   -4.6094   34.1741 C   0  0  0  0  0  0  0  0  0  0  0  0
    5.0938   -5.4714   34.5232 C   0  0  0  0  0  0  0  0  0  0  0  0
    6.1763   -5.3178   33.6833 C   0  0  0  0  0  0  0  0  0  0  0  0
    5.8867   -4.1457   32.4714 S   0  0  0  0  0  0  0  0  0  0  0  0
    4.3273   -3.8396   33.0743 C   0  0  0  0  0  0  0  0  0  0  0  0
    3.4356   -2.8020   32.4802 C   0  0  0  0  0  0  0  0  0  0  0  0
    1.9740   -2.9982   32.9453 C   0  0  0  0  0  0  0  0  0  0  0  0
    1.0602   -3.8061   31.9526 C   0  0  0  0  0  0  0  0  0  0  0  0
    1.6432   -5.0626   31.2821 C   0  0  0  0  0  0  0  0  0  0  0  0
    0.8414   -6.1949   31.8475 C   0  0  0  0  0  0  0  0  0  0  0  0
    1.0931   -6.6051   33.0461 N   0  0  0  0  0  0  0  0  0  0  0  0
    0.1604   -7.4237   33.6182 C   0  0  0  0  0  0  0  0  0  0  0  0
   -0.9364   -7.8657   33.0070 C   0  0  0  0  0  0  0  0  0  0  0  0
   -1.0726   -7.5576   31.5911 C   0  0  0  0  0  0  0  0  0  0  0  0
   -1.9165   -8.1033   30.8989 O   0  0  0  0  0  0  0  0  0  0  0  0
   -0.2059   -6.6346   31.1010 N   0  0  0  0  0  0  0  0  0  0  0  0
    0.5628   -2.9135   30.8782 N   0  0  0  0  0  0  0  0  0  0  0  0
   -0.9454   -2.1987   31.1744 S   0  0  0  0  0  0  0  0  0  0  0  0
   -0.8145   -1.3996   32.3701 O   0  0  0  0  0  0  0  0  0  0  0  0
   -1.9347   -3.2494   31.0829 O   0  0  0  0  0  0  0  0  0  0  0  0
   -1.1687   -1.1285   29.8176 C   0  0  0  0  0  0  0  0  0  0  0  0
   -1.6905   -1.2612   28.5512 C   0  0  0  0  0  0  0  0  0  0  0  0
   -1.4992   -0.0660   27.8081 C   0  0  0  0  0  0  0  0  0  0  0  0
   -0.8499    0.9196   28.4203 N   0  0  0  0  0  0  0  0  0  0  0  0
   -0.4673    0.4162   29.9501 S   0  0  0  0  0  0  0  0  0  0  0  0
   -0.8964   -3.2453   34.2649 H   0  0  0  0  0  0  0  0  0  0  0  0
   -1.8993   -5.1358   35.6467 H   0  0  0  0  0  0  0  0  0  0  0  0
    2.8839   -4.3128   35.9673 H   0  0  0  0  0  0  0  0  0  0  0  0
    2.1680   -5.4470   34.8332 H   0  0  0  0  0  0  0  0  0  0  0  0
    5.0891   -6.1601   35.3600 H   0  0  0  0  0  0  0  0  0  0  0  0
    7.1261   -5.8335   33.7252 H   0  0  0  0  0  0  0  0  0  0  0  0
    3.4994   -2.7832   31.3866 H   0  0  0  0  0  0  0  0  0  0  0  0
    3.7867   -1.8243   32.8375 H   0  0  0  0  0  0  0  0  0  0  0  0
    1.5560   -1.9823   32.9552 H   0  0  0  0  0  0  0  0  0  0  0  0
    0.1782   -4.1035   32.5319 H   0  0  0  0  0  0  0  0  0  0  0  0
    2.6917   -5.2315   31.5198 H   0  0  0  0  0  0  0  0  0  0  0  0
    1.5419   -5.0432   30.1913 H   0  0  0  0  0  0  0  0  0  0  0  0
    0.3219   -7.6849   34.6631 H   0  0  0  0  0  0  0  0  0  0  0  0
   -1.6890   -8.4725   33.4811 H   0  0  0  0  0  0  0  0  0  0  0  0
   -0.3315   -6.3566   30.1384 H   0  0  0  0  0  0  0  0  0  0  0  0
    1.2419   -2.2330   30.5291 H   0  0  0  0  0  0  0  0  0  0  0  0
   -2.1682   -2.1506   28.1731 H   0  0  0  0  0  0  0  0  0  0  0  0
   -1.8286    0.1042   26.7901 H   0  0  0  0  0  0  0  0  0  0  0  0
  1  2  2  0
  2  3  1  0
  3  4  1  0
  3  5  1  0
  2  6  1  0
  6  7  1  0
  7  8  1  0
  8  9  1  0
  9 10  2  0
 10 11  1  0
 11 12  1  0
 12 13  1  0
 13 14  1  0
 14 15  1  0
 15 16  1  0
 16 17  1  0
 17 18  2  0
 18 19  1  0
 19 20  2  0
 20 21  1  0
 21 22  2  0
 21 23  1  0
 15 24  1  0
 24 25  1  0
 25 26  2  0
 25 27  2  0
 25 28  1  0
 28 29  2  0
 29 30  1  0
 30 31  2  0
 31 32  1  0
 14  6  1  0
 23 17  1  0
 32 28  1  0
 12  8  2  0
  3 33  1  0
  4 34  1  0
  7 35  1  0
  7 36  1  0
  9 37  1  0
 10 38  1  0
 13 39  1  0
 13 40  1  0
 14 41  1  0
 15 42  1  0
 16 43  1  0
 16 44  1  0
 19 45  1  0
 20 46  1  0
 23 47  1  0
 24 48  1  0
 29 49  1  0
 30 50  1  0
M  END
>  <Energy>  (788) 
-24.027616743807798

>  <compound_id>  (788) 
2657

>  <target_id>  (788) 
1

>  <reference_id>  (788) 
187

>  <inspiration_ids>  (788) 
[187, 78]

>  <energy_score>  (788) 
-102.02129435034965

>  <distance_score>  (788) 
1.7270104771443877

>  <path>  (788) 
/opt/xchem-fragalysis-2/maxwin/BulkDock/SCRATCH/505736/C2657-P187/C2657-P187.minimised.mol

>  <scratch_subdir>  (788) 
/opt/xchem-fragalysis-2/maxwin/BulkDock/SCRATCH/505736/C2657-P187

>  <fragmenstein_runtime>  (788) 
4.355858087539673

>  <fragmenstein_outcome>  (788) 
too moved

>  <fragmenstein_mode>  (788) 
expansion

>  <fragmenstein_error>  (788) 


$$$$
C2657-P78
     RDKit          3D

 50 53  0  0  0  0  0  0  0  0999 V2000
    0.5452   -1.0723   34.3842 O   0  0  0  0  0  0  0  0  0  0  0  0
    0.6020   -2.2841   34.6256 C   0  0  0  0  0  0  0  0  0  0  0  0
   -0.6024   -3.0674   35.2123 C   0  0  0  0  0  0  0  0  0  0  0  0
   -0.3763   -4.8478   35.5330 S   0  0  0  0  0  0  0  0  0  0  0  0
   -1.0633   -2.2768   36.7512 Cl  0  0  0  0  0  0  0  0  0  0  0  0
    1.8304   -2.8857   34.4457 N   0  0  0  0  0  0  0  0  0  0  0  0
    2.7055   -2.8967   35.6159 C   0  0  0  0  0  0  0  0  0  0  0  0
    3.1434   -4.2988   35.8298 C   0  0  0  0  0  0  0  0  0  0  0  0
    3.2876   -4.9871   37.0701 C   0  0  0  0  0  0  0  0  0  0  0  0
    3.6981   -6.2898   36.8874 C   0  0  0  0  0  0  0  0  0  0  0  0
    3.9074   -6.6659   35.2324 S   0  0  0  0  0  0  0  0  0  0  0  0
    3.4480   -5.1048   34.7591 C   0  0  0  0  0  0  0  0  0  0  0  0
    3.3802   -4.6268   33.3439 C   0  0  0  0  0  0  0  0  0  0  0  0
    2.2942   -3.5086   33.1459 C   0  0  0  0  0  0  0  0  0  0  0  0
    1.1028   -3.7852   32.1295 C   0  0  0  0  0  0  0  0  0  0  0  0
    1.3211   -4.8796   31.0658 C   0  0  0  0  0  0  0  0  0  0  0  0
    0.6843   -6.0952   31.6830 C   0  0  0  0  0  0  0  0  0  0  0  0
    1.0843   -6.4902   32.8495 N   0  0  0  0  0  0  0  0  0  0  0  0
    0.2894   -7.3837   33.5066 C   0  0  0  0  0  0  0  0  0  0  0  0
   -0.8421   -7.8778   33.0147 C   0  0  0  0  0  0  0  0  0  0  0  0
   -1.1508   -7.5752   31.6256 C   0  0  0  0  0  0  0  0  0  0  0  0
   -2.0677   -8.1438   31.0571 O   0  0  0  0  0  0  0  0  0  0  0  0
   -0.3765   -6.6338   31.0310 N   0  0  0  0  0  0  0  0  0  0  0  0
    0.7201   -2.5008   31.4665 N   0  0  0  0  0  0  0  0  0  0  0  0
   -0.9443   -2.2598   31.2094 S   0  0  0  0  0  0  0  0  0  0  0  0
   -1.4429   -1.5074   32.3343 O   0  0  0  0  0  0  0  0  0  0  0  0
   -1.5341   -3.5346   30.8633 O   0  0  0  0  0  0  0  0  0  0  0  0
   -1.0614   -1.2394   29.8027 C   0  0  0  0  0  0  0  0  0  0  0  0
   -1.4892   -1.4030   28.5049 C   0  0  0  0  0  0  0  0  0  0  0  0
   -1.3210   -0.2012   27.7679 C   0  0  0  0  0  0  0  0  0  0  0  0
   -0.7658    0.8196   28.4150 N   0  0  0  0  0  0  0  0  0  0  0  0
   -0.4404    0.3356   29.9671 S   0  0  0  0  0  0  0  0  0  0  0  0
   -1.4402   -2.9551   34.5218 H   0  0  0  0  0  0  0  0  0  0  0  0
    0.7074   -5.0160   34.7667 H   0  0  0  0  0  0  0  0  0  0  0  0
    3.5641   -2.2513   35.3994 H   0  0  0  0  0  0  0  0  0  0  0  0
    2.1847   -2.4971   36.4928 H   0  0  0  0  0  0  0  0  0  0  0  0
    3.0957   -4.5579   38.0469 H   0  0  0  0  0  0  0  0  0  0  0  0
    3.8858   -7.0376   37.6464 H   0  0  0  0  0  0  0  0  0  0  0  0
    3.2905   -5.4572   32.6485 H   0  0  0  0  0  0  0  0  0  0  0  0
    4.3590   -4.1788   33.1171 H   0  0  0  0  0  0  0  0  0  0  0  0
    2.8639   -2.6856   32.6863 H   0  0  0  0  0  0  0  0  0  0  0  0
    0.2406   -4.0608   32.7452 H   0  0  0  0  0  0  0  0  0  0  0  0
    2.3732   -5.0595   30.8365 H   0  0  0  0  0  0  0  0  0  0  0  0
    0.8232   -4.6382   30.1204 H   0  0  0  0  0  0  0  0  0  0  0  0
    0.5776   -7.6262   34.5280 H   0  0  0  0  0  0  0  0  0  0  0  0
   -1.5185   -8.5051   33.5647 H   0  0  0  0  0  0  0  0  0  0  0  0
   -0.6481   -6.3330   30.1045 H   0  0  0  0  0  0  0  0  0  0  0  0
    1.0402   -1.6772   31.9995 H   0  0  0  0  0  0  0  0  0  0  0  0
   -1.8980   -2.3153   28.1069 H   0  0  0  0  0  0  0  0  0  0  0  0
   -1.5952   -0.0521   26.7303 H   0  0  0  0  0  0  0  0  0  0  0  0
  1  2  2  0
  2  3  1  0
  3  4  1  0
  3  5  1  0
  2  6  1  0
  6  7  1  0
  7  8  1  0
  8  9  1  0
  9 10  2  0
 10 11  1  0
 11 12  1  0
 12 13  1  0
 13 14  1  0
 14 15  1  0
 15 16  1  0
 16 17  1  0
 17 18  2  0
 18 19  1  0
 19 20  2  0
 20 21  1  0
 21 22  2  0
 21 23  1  0
 15 24  1  0
 24 25  1  0
 25 26  2  0
 25 27  2  0
 25 28  1  0
 28 29  2  0
 29 30  1  0
 30 31  2  0
 31 32  1  0
 14  6  1  0
 23 17  1  0
 32 28  1  0
 12  8  2  0
  3 33  1  0
  4 34  1  0
  7 35  1  0
  7 36  1  0
  9 37  1  0
 10 38  1  0
 13 39  1  0
 13 40  1  0
 14 41  1  0
 15 42  1  0
 16 43  1  0
 16 44  1  0
 19 45  1  0
 20 46  1  0
 23 47  1  0
 24 48  1  0
 29 49  1  0
 30 50  1  0
M  END
>  <Energy>  (789) 
-18.026642306072681

>  <compound_id>  (789) 
2657

>  <target_id>  (789) 
1

>  <reference_id>  (789) 
78

>  <inspiration_ids>  (789) 
[187, 78]

>  <energy_score>  (789) 
-96.02031991261435

>  <distance_score>  (789) 
2.074153505346412

>  <path>  (789) 
/opt/xchem-fragalysis-2/maxwin/BulkDock/SCRATCH/505736/C2657-P78/C2657-P78.minimised.mol

>  <scratch_subdir>  (789) 
/opt/xchem-fragalysis-2/maxwin/BulkDock/SCRATCH/505736/C2657-P78

>  <fragmenstein_runtime>  (789) 
4.286470890045166

>  <fragmenstein_outcome>  (789) 
too moved

>  <fragmenstein_mode>  (789) 
expansion

>  <fragmenstein_error>  (789) 


$$$$
C2848-P187
     RDKit          3D

 51 55  0  0  0  0  0  0  0  0999 V2000
   -3.2204   -2.7511   31.7935 N   0  0  0  0  0  0  0  0  0  0  0  0
   -1.6237   -2.4814   32.1097 S   0  0  0  0  0  0  0  0  0  0  0  0
   -1.1587   -3.7790   32.5313 O   0  0  0  0  0  0  0  0  0  0  0  0
   -1.6440   -1.3500   32.9962 O   0  0  0  0  0  0  0  0  0  0  0  0
   -0.8806   -2.0536   30.5440 C   0  0  0  0  0  0  0  0  0  0  0  0
   -1.5077   -0.5022   29.8120 S   0  0  0  0  0  0  0  0  0  0  0  0
   -0.1272   -0.2643   28.9326 N   0  0  0  0  0  0  0  0  0  0  0  0
    1.0558   -0.7477   29.6481 C   0  0  0  0  0  0  0  0  0  0  0  0
    2.2159   -1.0665   28.7042 C   0  0  0  0  0  0  0  0  0  0  0  0
    3.4124   -1.7448   29.3804 C   0  0  0  0  0  0  0  0  0  0  0  0
    3.7394   -1.1915   30.7656 C   0  0  0  0  0  0  0  0  0  0  0  0
    2.9855   -1.8247   31.9441 C   0  0  0  0  0  0  0  0  0  0  0  0
    3.4499   -3.2109   32.2605 N   0  0  0  0  0  0  0  0  0  0  0  0
    2.2384   -4.0057   32.3428 C   0  0  0  0  0  0  0  0  0  0  0  0
    2.2349   -5.2632   33.2141 C   0  0  0  0  0  0  0  0  0  0  0  0
    1.1784   -6.1443   32.6479 C   0  0  0  0  0  0  0  0  0  0  0  0
    1.1100   -6.3895   31.3624 N   0  0  0  0  0  0  0  0  0  0  0  0
   -0.0275   -7.1492   31.2168 C   0  0  0  0  0  0  0  0  0  0  0  0
   -0.4553   -7.5222   30.1397 O   0  0  0  0  0  0  0  0  0  0  0  0
   -0.5683   -7.3732   32.4547 N   0  0  0  0  0  0  0  0  0  0  0  0
   -1.6810   -8.0266   32.8590 C   0  0  0  0  0  0  0  0  0  0  0  0
   -1.9930   -8.0490   34.1727 C   0  0  0  0  0  0  0  0  0  0  0  0
   -1.1431   -7.4353   35.1645 C   0  0  0  0  0  0  0  0  0  0  0  0
   -0.0667   -6.7905   34.7172 C   0  0  0  0  0  0  0  0  0  0  0  0
    0.2154   -6.7359   33.3878 N   0  0  0  0  0  0  0  0  0  0  0  0
    1.2882   -3.0399   32.8261 N   0  0  0  0  0  0  0  0  0  0  0  0
    1.4238   -1.8763   31.9310 C   0  0  0  0  0  0  0  0  0  0  0  0
    0.6700   -1.9617   30.5427 C   0  0  0  0  0  0  0  0  0  0  0  0
   -3.6412   -1.8755   31.4795 H   0  0  0  0  0  0  0  0  0  0  0  0
   -3.6504   -2.9873   32.7009 H   0  0  0  0  0  0  0  0  0  0  0  0
   -1.1689   -2.8640   29.8616 H   0  0  0  0  0  0  0  0  0  0  0  0
   -0.2025   -0.6926   28.0028 H   0  0  0  0  0  0  0  0  0  0  0  0
    1.3647    0.0831   30.2968 H   0  0  0  0  0  0  0  0  0  0  0  0
    1.8777   -1.7168   27.8895 H   0  0  0  0  0  0  0  0  0  0  0  0
    2.5535   -0.1342   28.2327 H   0  0  0  0  0  0  0  0  0  0  0  0
    4.2830   -1.6022   28.7275 H   0  0  0  0  0  0  0  0  0  0  0  0
    3.2539   -2.8282   29.4271 H   0  0  0  0  0  0  0  0  0  0  0  0
    4.8142   -1.3397   30.9400 H   0  0  0  0  0  0  0  0  0  0  0  0
    3.5971   -0.1039   30.7794 H   0  0  0  0  0  0  0  0  0  0  0  0
    3.2742   -1.2388   32.8297 H   0  0  0  0  0  0  0  0  0  0  0  0
    4.0551   -3.5707   31.5282 H   0  0  0  0  0  0  0  0  0  0  0  0
    1.9971   -4.2742   31.3093 H   0  0  0  0  0  0  0  0  0  0  0  0
    2.0780   -5.0317   34.2706 H   0  0  0  0  0  0  0  0  0  0  0  0
    3.1909   -5.7883   33.1293 H   0  0  0  0  0  0  0  0  0  0  0  0
   -2.2739   -8.5043   32.0924 H   0  0  0  0  0  0  0  0  0  0  0  0
   -2.8520   -8.5939   34.5457 H   0  0  0  0  0  0  0  0  0  0  0  0
   -1.3444   -7.5407   36.2180 H   0  0  0  0  0  0  0  0  0  0  0  0
    0.6284   -6.3042   35.3907 H   0  0  0  0  0  0  0  0  0  0  0  0
    0.3704   -3.4733   32.8890 H   0  0  0  0  0  0  0  0  0  0  0  0
    1.0479   -0.9918   32.4600 H   0  0  0  0  0  0  0  0  0  0  0  0
    1.0000   -2.8795   30.0389 H   0  0  0  0  0  0  0  0  0  0  0  0
  1  2  1  0
  2  3  2  0
  2  4  2  0
  2  5  1  0
  5  6  1  0
  6  7  1  0
  7  8  1  0
  8  9  1  0
  9 10  1  0
 10 11  1  0
 11 12  1  0
 12 13  1  0
 13 14  1  0
 14 15  1  0
 15 16  1  0
 16 17  2  0
 17 18  1  0
 18 19  2  0
 18 20  1  0
 20 21  1  0
 21 22  2  0
 22 23  1  0
 23 24  2  0
 24 25  1  0
 14 26  1  0
 26 27  1  0
 27 28  1  0
 28  5  1  0
 28  8  1  0
 27 12  1  0
 25 16  1  0
 25 20  1  0
  1 29  1  0
  1 30  1  0
  5 31  1  0
  7 32  1  0
  8 33  1  0
  9 34  1  0
  9 35  1  0
 10 36  1  0
 10 37  1  0
 11 38  1  0
 11 39  1  0
 12 40  1  0
 13 41  1  0
 14 42  1  0
 15 43  1  0
 15 44  1  0
 21 45  1  0
 22 46  1  0
 23 47  1  0
 24 48  1  0
 26 49  1  0
 27 50  1  0
 28 51  1  0
M  END
>  <Energy>  (790) 
12.979392076709264

>  <compound_id>  (790) 
2848

>  <target_id>  (790) 
1

>  <reference_id>  (790) 
187

>  <inspiration_ids>  (790) 
[187, 105]

>  <energy_score>  (790) 
-65.97123493456408

>  <distance_score>  (790) 
2.9468428344466444

>  <path>  (790) 
/opt/xchem-fragalysis-2/maxwin/BulkDock/SCRATCH/505736/C2848-P187/C2848-P187.minimised.mol

>  <scratch_subdir>  (790) 
/opt/xchem-fragalysis-2/maxwin/BulkDock/SCRATCH/505736/C2848-P187

>  <fragmenstein_runtime>  (790) 
7.956189155578613

>  <fragmenstein_outcome>  (790) 
too moved

>  <fragmenstein_mode>  (790) 
expansion

>  <fragmenstein_error>  (790) 


$$$$
C2848-P105
     RDKit          3D

 51 55  0  0  0  0  0  0  0  0999 V2000
   -1.5072   -1.2836   33.7537 N   0  0  0  0  0  0  0  0  0  0  0  0
   -2.4642   -1.1362   32.3977 S   0  0  0  0  0  0  0  0  0  0  0  0
   -3.2458    0.0390   32.6977 O   0  0  0  0  0  0  0  0  0  0  0  0
   -3.1236   -2.3972   32.1452 O   0  0  0  0  0  0  0  0  0  0  0  0
   -1.3809   -0.7904   31.0695 C   0  0  0  0  0  0  0  0  0  0  0  0
   -0.3563    0.6748   30.9680 S   0  0  0  0  0  0  0  0  0  0  0  0
    0.2715    0.1336   29.5100 N   0  0  0  0  0  0  0  0  0  0  0  0
    0.5700   -1.2936   29.6466 C   0  0  0  0  0  0  0  0  0  0  0  0
    0.7136   -2.1277   28.3932 C   0  0  0  0  0  0  0  0  0  0  0  0
    1.2726   -3.5174   28.7419 C   0  0  0  0  0  0  0  0  0  0  0  0
    0.3157   -4.3952   29.5591 C   0  0  0  0  0  0  0  0  0  0  0  0
    0.3168   -4.1782   31.0764 C   0  0  0  0  0  0  0  0  0  0  0  0
   -0.8690   -4.7383   31.7676 N   0  0  0  0  0  0  0  0  0  0  0  0
   -0.8243   -4.2425   33.1469 C   0  0  0  0  0  0  0  0  0  0  0  0
   -0.6460   -5.2037   34.3913 C   0  0  0  0  0  0  0  0  0  0  0  0
    0.2541   -6.2891   33.9650 C   0  0  0  0  0  0  0  0  0  0  0  0
    1.5196   -6.0162   33.8283 N   0  0  0  0  0  0  0  0  0  0  0  0
    1.7627   -6.5504   32.5926 C   0  0  0  0  0  0  0  0  0  0  0  0
    2.6135   -6.1290   31.8314 O   0  0  0  0  0  0  0  0  0  0  0  0
    0.7236   -7.3897   32.2246 N   0  0  0  0  0  0  0  0  0  0  0  0
    0.3095   -7.6349   30.9432 C   0  0  0  0  0  0  0  0  0  0  0  0
   -0.9426   -8.0319   30.7124 C   0  0  0  0  0  0  0  0  0  0  0  0
   -1.8532   -8.2086   31.8288 C   0  0  0  0  0  0  0  0  0  0  0  0
   -1.4464   -7.8629   33.0524 C   0  0  0  0  0  0  0  0  0  0  0  0
   -0.1896   -7.3777   33.2607 N   0  0  0  0  0  0  0  0  0  0  0  0
    0.1183   -3.1391   33.0564 N   0  0  0  0  0  0  0  0  0  0  0  0
    0.3634   -2.7814   31.6407 C   0  0  0  0  0  0  0  0  0  0  0  0
   -0.4694   -1.9112   30.6480 C   0  0  0  0  0  0  0  0  0  0  0  0
   -1.3832   -0.3668   34.1954 H   0  0  0  0  0  0  0  0  0  0  0  0
   -1.9741   -1.9290   34.4039 H   0  0  0  0  0  0  0  0  0  0  0  0
   -2.1082   -0.6410   30.2541 H   0  0  0  0  0  0  0  0  0  0  0  0
   -0.3691    0.2929   28.7266 H   0  0  0  0  0  0  0  0  0  0  0  0
    1.5733   -1.2823   30.0951 H   0  0  0  0  0  0  0  0  0  0  0  0
   -0.2491   -2.2146   27.8790 H   0  0  0  0  0  0  0  0  0  0  0  0
    1.4111   -1.6307   27.7101 H   0  0  0  0  0  0  0  0  0  0  0  0
    2.2328   -3.4235   29.2639 H   0  0  0  0  0  0  0  0  0  0  0  0
    1.4950   -4.0336   27.8033 H   0  0  0  0  0  0  0  0  0  0  0  0
    0.6406   -5.4237   29.4101 H   0  0  0  0  0  0  0  0  0  0  0  0
   -0.6932   -4.3346   29.1382 H   0  0  0  0  0  0  0  0  0  0  0  0
    1.2278   -4.6309   31.4219 H   0  0  0  0  0  0  0  0  0  0  0  0
   -0.8442   -5.7452   31.7487 H   0  0  0  0  0  0  0  0  0  0  0  0
   -1.7932   -3.8027   33.3201 H   0  0  0  0  0  0  0  0  0  0  0  0
   -1.5854   -5.6473   34.7138 H   0  0  0  0  0  0  0  0  0  0  0  0
   -0.2186   -4.6599   35.2404 H   0  0  0  0  0  0  0  0  0  0  0  0
    1.0092   -7.4373   30.1457 H   0  0  0  0  0  0  0  0  0  0  0  0
   -1.2372   -8.1328   29.6795 H   0  0  0  0  0  0  0  0  0  0  0  0
   -2.8763   -8.5227   31.7074 H   0  0  0  0  0  0  0  0  0  0  0  0
   -2.0559   -7.9302   33.9434 H   0  0  0  0  0  0  0  0  0  0  0  0
   -0.2200   -2.3256   33.5700 H   0  0  0  0  0  0  0  0  0  0  0  0
    1.3983   -2.4241   31.6612 H   0  0  0  0  0  0  0  0  0  0  0  0
   -1.1703   -2.5544   30.1013 H   0  0  0  0  0  0  0  0  0  0  0  0
  1  2  1  0
  2  3  2  0
  2  4  2  0
  2  5  1  0
  5  6  1  0
  6  7  1  0
  7  8  1  0
  8  9  1  0
  9 10  1  0
 10 11  1  0
 11 12  1  0
 12 13  1  0
 13 14  1  0
 14 15  1  0
 15 16  1  0
 16 17  2  0
 17 18  1  0
 18 19  2  0
 18 20  1  0
 20 21  1  0
 21 22  2  0
 22 23  1  0
 23 24  2  0
 24 25  1  0
 14 26  1  0
 26 27  1  0
 27 28  1  0
 28  5  1  0
 28  8  1  0
 27 12  1  0
 25 16  1  0
 25 20  1  0
  1 29  1  0
  1 30  1  0
  5 31  1  0
  7 32  1  0
  8 33  1  0
  9 34  1  0
  9 35  1  0
 10 36  1  0
 10 37  1  0
 11 38  1  0
 11 39  1  0
 12 40  1  0
 13 41  1  0
 14 42  1  0
 15 43  1  0
 15 44  1  0
 21 45  1  0
 22 46  1  0
 23 47  1  0
 24 48  1  0
 26 49  1  0
 27 50  1  0
 28 51  1  0
M  END
>  <Energy>  (791) 
84.555603378771679

>  <compound_id>  (791) 
2848

>  <target_id>  (791) 
1

>  <reference_id>  (791) 
105

>  <inspiration_ids>  (791) 
[187, 105]

>  <energy_score>  (791) 
5.60497636749767

>  <distance_score>  (791) 
2.216726098650092

>  <path>  (791) 
/opt/xchem-fragalysis-2/maxwin/BulkDock/SCRATCH/505736/C2848-P105/C2848-P105.minimised.mol

>  <scratch_subdir>  (791) 
/opt/xchem-fragalysis-2/maxwin/BulkDock/SCRATCH/505736/C2848-P105

>  <fragmenstein_runtime>  (791) 
5.733933687210083

>  <fragmenstein_outcome>  (791) 
too moved

>  <fragmenstein_mode>  (791) 
expansion

>  <fragmenstein_error>  (791) 


$$$$
C2869-P187
     RDKit          3D

 36 37  0  0  0  0  0  0  0  0999 V2000
   -1.7270   -8.3464   32.4253 C   0  0  0  0  0  0  0  0  0  0  0  0
   -0.6473   -7.4103   32.0853 C   0  0  0  0  0  0  0  0  0  0  0  0
   -0.2519   -7.3091   30.7769 C   0  0  0  0  0  0  0  0  0  0  0  0
    0.6274   -6.4114   30.3367 N   0  0  0  0  0  0  0  0  0  0  0  0
    1.1408   -5.5964   31.2682 C   0  0  0  0  0  0  0  0  0  0  0  0
    1.9387   -4.4480   30.7519 C   0  0  0  0  0  0  0  0  0  0  0  0
    0.9825   -3.3488   30.3168 C   0  0  0  0  0  0  0  0  0  0  0  0
    0.4473   -2.6746   31.5011 N   0  0  0  0  0  0  0  0  0  0  0  0
   -1.1155   -2.1011   31.5250 S   0  0  0  0  0  0  0  0  0  0  0  0
   -1.2333   -1.3068   32.7286 O   0  0  0  0  0  0  0  0  0  0  0  0
   -2.0190   -3.1969   31.2485 O   0  0  0  0  0  0  0  0  0  0  0  0
   -1.0911   -0.9830   30.1491 C   0  0  0  0  0  0  0  0  0  0  0  0
   -1.5967   -1.3781   28.9139 C   0  0  0  0  0  0  0  0  0  0  0  0
   -1.6097   -0.4660   27.8592 C   0  0  0  0  0  0  0  0  0  0  0  0
   -1.1085    0.8157   28.0339 C   0  0  0  0  0  0  0  0  0  0  0  0
   -1.1807    1.6937   26.9954 O   0  0  0  0  0  0  0  0  0  0  0  0
   -0.5603    1.1972   29.2490 C   0  0  0  0  0  0  0  0  0  0  0  0
   -0.5641    0.3014   30.3209 C   0  0  0  0  0  0  0  0  0  0  0  0
    0.9096   -5.6687   32.5925 N   0  0  0  0  0  0  0  0  0  0  0  0
    0.0014   -6.5758   32.9554 C   0  0  0  0  0  0  0  0  0  0  0  0
   -0.2483   -6.6027   34.2873 O   0  0  0  0  0  0  0  0  0  0  0  0
   -1.9384   -8.3675   33.4948 H   0  0  0  0  0  0  0  0  0  0  0  0
   -2.6345   -8.0654   31.8919 H   0  0  0  0  0  0  0  0  0  0  0  0
   -1.4500   -9.3350   32.0694 H   0  0  0  0  0  0  0  0  0  0  0  0
   -0.6583   -7.9571   30.0081 H   0  0  0  0  0  0  0  0  0  0  0  0
    2.5351   -4.7822   29.8948 H   0  0  0  0  0  0  0  0  0  0  0  0
    2.6387   -4.0947   31.5179 H   0  0  0  0  0  0  0  0  0  0  0  0
    1.5367   -2.6061   29.7319 H   0  0  0  0  0  0  0  0  0  0  0  0
    0.1825   -3.7464   29.6831 H   0  0  0  0  0  0  0  0  0  0  0  0
    1.0761   -2.2361   32.1700 H   0  0  0  0  0  0  0  0  0  0  0  0
   -1.9992   -2.3752   28.7583 H   0  0  0  0  0  0  0  0  0  0  0  0
   -2.0427   -0.7512   26.9053 H   0  0  0  0  0  0  0  0  0  0  0  0
   -1.3634    2.5759   27.3670 H   0  0  0  0  0  0  0  0  0  0  0  0
   -0.1445    2.1930   29.3773 H   0  0  0  0  0  0  0  0  0  0  0  0
   -0.1582    0.6107   31.2809 H   0  0  0  0  0  0  0  0  0  0  0  0
    0.1788   -5.7808   34.5823 H   0  0  0  0  0  0  0  0  0  0  0  0
  1  2  1  0
  2  3  2  0
  3  4  1  0
  4  5  2  0
  5  6  1  0
  6  7  1  0
  7  8  1  0
  8  9  1  0
  9 10  2  0
  9 11  2  0
  9 12  1  0
 12 13  2  0
 13 14  1  0
 14 15  2  0
 15 16  1  0
 15 17  1  0
 17 18  2  0
  5 19  1  0
 19 20  2  0
 20 21  1  0
 20  2  1  0
 18 12  1  0
  1 22  1  0
  1 23  1  0
  1 24  1  0
  3 25  1  0
  6 26  1  0
  6 27  1  0
  7 28  1  0
  7 29  1  0
  8 30  1  0
 13 31  1  0
 14 32  1  0
 16 33  1  0
 17 34  1  0
 18 35  1  0
 21 36  1  0
M  END
>  <Energy>  (792) 
-87.413753541100036

>  <compound_id>  (792) 
2869

>  <target_id>  (792) 
1

>  <reference_id>  (792) 
187

>  <inspiration_ids>  (792) 
[187, 150]

>  <energy_score>  (792) 
-54.75493318601626

>  <distance_score>  (792) 
1.2889274467448737

>  <path>  (792) 
/opt/xchem-fragalysis-2/maxwin/BulkDock/SCRATCH/505736/C2869-P187/C2869-P187.minimised.mol

>  <scratch_subdir>  (792) 
/opt/xchem-fragalysis-2/maxwin/BulkDock/SCRATCH/505736/C2869-P187

>  <fragmenstein_runtime>  (792) 
2.9374611377716064

>  <fragmenstein_outcome>  (792) 
too moved

>  <fragmenstein_mode>  (792) 
expansion

>  <fragmenstein_error>  (792) 


$$$$
C2869-P150
     RDKit          3D

 36 37  0  0  0  0  0  0  0  0999 V2000
   -1.7674   -8.2937   32.5081 C   0  0  0  0  0  0  0  0  0  0  0  0
   -0.7264   -7.3151   32.1666 C   0  0  0  0  0  0  0  0  0  0  0  0
   -0.4460   -7.0790   30.8464 C   0  0  0  0  0  0  0  0  0  0  0  0
    0.4515   -6.1943   30.4235 N   0  0  0  0  0  0  0  0  0  0  0  0
    1.0797   -5.5032   31.3822 C   0  0  0  0  0  0  0  0  0  0  0  0
    1.9535   -4.3921   30.9103 C   0  0  0  0  0  0  0  0  0  0  0  0
    1.0680   -3.2388   30.4982 C   0  0  0  0  0  0  0  0  0  0  0  0
    0.4591   -2.6512   31.6939 N   0  0  0  0  0  0  0  0  0  0  0  0
   -1.1175   -2.1173   31.6409 S   0  0  0  0  0  0  0  0  0  0  0  0
   -1.3251   -1.3242   32.8312 O   0  0  0  0  0  0  0  0  0  0  0  0
   -1.9731   -3.2312   31.2973 O   0  0  0  0  0  0  0  0  0  0  0  0
   -1.0080   -1.0074   30.2677 C   0  0  0  0  0  0  0  0  0  0  0  0
   -1.4229   -1.4198   29.0046 C   0  0  0  0  0  0  0  0  0  0  0  0
   -1.2924   -0.5421   27.9323 C   0  0  0  0  0  0  0  0  0  0  0  0
   -0.7488    0.7204   28.1283 C   0  0  0  0  0  0  0  0  0  0  0  0
   -0.7114    1.6337   27.1212 O   0  0  0  0  0  0  0  0  0  0  0  0
   -0.2689    1.1013   29.3692 C   0  0  0  0  0  0  0  0  0  0  0  0
   -0.4227    0.2482   30.4580 C   0  0  0  0  0  0  0  0  0  0  0  0
    0.9429   -5.6927   32.7076 N   0  0  0  0  0  0  0  0  0  0  0  0
    0.0253   -6.5952   33.0556 C   0  0  0  0  0  0  0  0  0  0  0  0
   -0.1106   -6.7547   34.3939 O   0  0  0  0  0  0  0  0  0  0  0  0
   -1.9674   -8.3385   33.5796 H   0  0  0  0  0  0  0  0  0  0  0  0
   -2.6896   -8.0440   31.9869 H   0  0  0  0  0  0  0  0  0  0  0  0
   -1.4620   -9.2646   32.1306 H   0  0  0  0  0  0  0  0  0  0  0  0
   -0.9570   -7.5992   30.0477 H   0  0  0  0  0  0  0  0  0  0  0  0
    2.5414   -4.7294   30.0490 H   0  0  0  0  0  0  0  0  0  0  0  0
    2.6575   -4.0964   31.6967 H   0  0  0  0  0  0  0  0  0  0  0  0
    1.6787   -2.4689   30.0134 H   0  0  0  0  0  0  0  0  0  0  0  0
    0.3136   -3.5711   29.7776 H   0  0  0  0  0  0  0  0  0  0  0  0
    1.0427   -2.1988   32.3944 H   0  0  0  0  0  0  0  0  0  0  0  0
   -1.8532   -2.4050   28.8411 H   0  0  0  0  0  0  0  0  0  0  0  0
   -1.6435   -0.8542   26.9558 H   0  0  0  0  0  0  0  0  0  0  0  0
   -1.5268    1.5041   26.6045 H   0  0  0  0  0  0  0  0  0  0  0  0
    0.1946    2.0767   29.4915 H   0  0  0  0  0  0  0  0  0  0  0  0
   -0.0707    0.5566   31.4391 H   0  0  0  0  0  0  0  0  0  0  0  0
    0.3398   -5.9629   34.7342 H   0  0  0  0  0  0  0  0  0  0  0  0
  1  2  1  0
  2  3  2  0
  3  4  1  0
  4  5  2  0
  5  6  1  0
  6  7  1  0
  7  8  1  0
  8  9  1  0
  9 10  2  0
  9 11  2  0
  9 12  1  0
 12 13  2  0
 13 14  1  0
 14 15  2  0
 15 16  1  0
 15 17  1  0
 17 18  2  0
  5 19  1  0
 19 20  2  0
 20 21  1  0
 20  2  1  0
 18 12  1  0
  1 22  1  0
  1 23  1  0
  1 24  1  0
  3 25  1  0
  6 26  1  0
  6 27  1  0
  7 28  1  0
  7 29  1  0
  8 30  1  0
 13 31  1  0
 14 32  1  0
 16 33  1  0
 17 34  1  0
 18 35  1  0
 21 36  1  0
M  END
>  <Energy>  (793) 
-86.140802093717255

>  <compound_id>  (793) 
2869

>  <target_id>  (793) 
1

>  <reference_id>  (793) 
150

>  <inspiration_ids>  (793) 
[187, 150]

>  <energy_score>  (793) 
-53.481981738633834

>  <distance_score>  (793) 
1.277224151468598

>  <path>  (793) 
/opt/xchem-fragalysis-2/maxwin/BulkDock/SCRATCH/505736/C2869-P150/C2869-P150.minimised.mol

>  <scratch_subdir>  (793) 
/opt/xchem-fragalysis-2/maxwin/BulkDock/SCRATCH/505736/C2869-P150

>  <fragmenstein_runtime>  (793) 
2.7064425945281982

>  <fragmenstein_outcome>  (793) 
too moved

>  <fragmenstein_mode>  (793) 
expansion

>  <fragmenstein_error>  (793) 


$$$$
C437-P187
     RDKit          3D

 63 66  0  0  0  0  0  0  0  0999 V2000
   -0.3060   -3.7268   35.1552 C   0  0  0  0  0  0  0  0  0  0  0  0
    1.1096   -3.7843   34.6693 C   0  0  0  0  0  0  0  0  0  0  0  0
    2.0903   -4.4063   35.4112 C   0  0  0  0  0  0  0  0  0  0  0  0
    3.3862   -4.4380   34.9017 C   0  0  0  0  0  0  0  0  0  0  0  0
    3.6907   -3.8047   33.7022 C   0  0  0  0  0  0  0  0  0  0  0  0
    2.6650   -3.1900   33.0360 C   0  0  0  0  0  0  0  0  0  0  0  0
    2.8207   -2.5667   31.8219 N   0  0  0  0  0  0  0  0  0  0  0  0
    4.1030   -2.2143   31.0292 C   0  0  0  0  0  0  0  0  0  0  0  0
    5.2284   -2.3297   31.3200 O   0  0  0  0  0  0  0  0  0  0  0  0
    3.6098   -1.5755   29.6984 C   0  0  0  0  0  0  0  0  0  0  0  0
    3.9009   -0.0901   29.5962 C   0  0  0  0  0  0  0  0  0  0  0  0
    2.7153    0.4411   28.8075 C   0  0  0  0  0  0  0  0  0  0  0  0
    1.5286   -0.3590   29.3587 C   0  0  0  0  0  0  0  0  0  0  0  0
    0.3505   -0.4007   28.3565 C   0  0  0  0  0  0  0  0  0  0  0  0
   -0.9139   -1.1229   28.8490 C   0  0  0  0  0  0  0  0  0  0  0  0
   -1.2750   -0.7887   30.2924 C   0  0  0  0  0  0  0  0  0  0  0  0
   -1.3251   -2.1816   31.4491 S   0  0  0  0  0  0  0  0  0  0  0  0
   -1.1653   -1.6201   32.7740 O   0  0  0  0  0  0  0  0  0  0  0  0
   -2.4777   -3.0131   31.1852 O   0  0  0  0  0  0  0  0  0  0  0  0
    0.0296   -3.1072   31.1635 N   0  0  0  0  0  0  0  0  0  0  0  0
    0.0503   -4.1490   30.1172 C   0  0  0  0  0  0  0  0  0  0  0  0
    0.9820   -5.3145   30.4380 C   0  0  0  0  0  0  0  0  0  0  0  0
    0.4029   -6.2356   31.4675 C   0  0  0  0  0  0  0  0  0  0  0  0
   -0.7372   -6.8876   31.1672 N   0  0  0  0  0  0  0  0  0  0  0  0
   -1.2988   -7.5944   32.1677 C   0  0  0  0  0  0  0  0  0  0  0  0
   -0.7643   -7.6797   33.4230 C   0  0  0  0  0  0  0  0  0  0  0  0
    0.4499   -7.0814   33.5581 C   0  0  0  0  0  0  0  0  0  0  0  0
    1.1836   -7.2601   34.6836 O   0  0  0  0  0  0  0  0  0  0  0  0
    1.0717   -6.3642   32.6222 N   0  0  0  0  0  0  0  0  0  0  0  0
   -0.4553    0.3914   30.8217 C   0  0  0  0  0  0  0  0  0  0  0  0
    1.0566    0.2181   30.7191 C   0  0  0  0  0  0  0  0  0  0  0  0
    2.1243   -1.7117   29.5302 N   0  0  0  0  0  0  0  0  0  0  0  0
    1.3899   -3.2008   33.4838 N   0  0  0  0  0  0  0  0  0  0  0  0
   -0.9935   -3.7967   34.3091 H   0  0  0  0  0  0  0  0  0  0  0  0
   -0.4820   -2.7863   35.6850 H   0  0  0  0  0  0  0  0  0  0  0  0
   -0.5296   -4.5608   35.8283 H   0  0  0  0  0  0  0  0  0  0  0  0
    1.8617   -4.8654   36.3683 H   0  0  0  0  0  0  0  0  0  0  0  0
    4.1778   -4.9221   35.4692 H   0  0  0  0  0  0  0  0  0  0  0  0
    4.7052   -3.8027   33.3226 H   0  0  0  0  0  0  0  0  0  0  0  0
    2.0016   -2.2574   31.2995 H   0  0  0  0  0  0  0  0  0  0  0  0
    4.0930   -2.1230   28.8798 H   0  0  0  0  0  0  0  0  0  0  0  0
    4.8458    0.1093   29.0811 H   0  0  0  0  0  0  0  0  0  0  0  0
    3.9510    0.3806   30.5852 H   0  0  0  0  0  0  0  0  0  0  0  0
    2.8654    0.2348   27.7392 H   0  0  0  0  0  0  0  0  0  0  0  0
    2.6007    1.5239   28.9212 H   0  0  0  0  0  0  0  0  0  0  0  0
    0.0826    0.6295   28.0832 H   0  0  0  0  0  0  0  0  0  0  0  0
    0.6792   -0.8665   27.4277 H   0  0  0  0  0  0  0  0  0  0  0  0
   -1.7385   -0.7937   28.2013 H   0  0  0  0  0  0  0  0  0  0  0  0
   -0.8498   -2.1933   28.6683 H   0  0  0  0  0  0  0  0  0  0  0  0
   -2.3238   -0.4597   30.2971 H   0  0  0  0  0  0  0  0  0  0  0  0
    0.4281   -3.3682   32.0832 H   0  0  0  0  0  0  0  0  0  0  0  0
    0.4174   -3.7041   29.1910 H   0  0  0  0  0  0  0  0  0  0  0  0
   -0.9541   -4.5025   29.9107 H   0  0  0  0  0  0  0  0  0  0  0  0
    1.1565   -5.9038   29.5322 H   0  0  0  0  0  0  0  0  0  0  0  0
    1.9637   -4.9547   30.7599 H   0  0  0  0  0  0  0  0  0  0  0  0
   -2.2291   -8.0994   31.9291 H   0  0  0  0  0  0  0  0  0  0  0  0
   -1.2272   -8.2256   34.2287 H   0  0  0  0  0  0  0  0  0  0  0  0
    1.9453   -6.6953   34.4652 H   0  0  0  0  0  0  0  0  0  0  0  0
   -0.7118    1.2701   30.2204 H   0  0  0  0  0  0  0  0  0  0  0  0
   -0.7288    0.6459   31.8513 H   0  0  0  0  0  0  0  0  0  0  0  0
    1.3912   -0.3854   31.5657 H   0  0  0  0  0  0  0  0  0  0  0  0
    1.5104    1.2027   30.8937 H   0  0  0  0  0  0  0  0  0  0  0  0
    1.9792   -2.2254   28.6582 H   0  0  0  0  0  0  0  0  0  0  0  0
  1  2  1  0
  2  3  2  0
  3  4  1  0
  4  5  2  0
  5  6  1  0
  6  7  1  0
  7  8  1  0
  8  9  2  0
  8 10  1  0
 10 11  1  0
 11 12  1  0
 12 13  1  0
 13 14  1  0
 14 15  1  0
 15 16  1  0
 16 17  1  0
 17 18  2  0
 17 19  2  0
 17 20  1  0
 20 21  1  0
 21 22  1  0
 22 23  1  0
 23 24  2  0
 24 25  1  0
 25 26  2  0
 26 27  1  0
 27 28  1  0
 27 29  2  0
 16 30  1  0
 30 31  1  0
 13 32  1  0
  6 33  2  0
 33  2  1  0
 32 10  1  0
 31 13  1  0
 29 23  1  0
  1 34  1  0
  1 35  1  0
  1 36  1  0
  3 37  1  0
  4 38  1  0
  5 39  1  0
  7 40  1  0
 10 41  1  0
 11 42  1  0
 11 43  1  0
 12 44  1  0
 12 45  1  0
 14 46  1  0
 14 47  1  0
 15 48  1  0
 15 49  1  0
 16 50  1  0
 20 51  1  0
 21 52  1  0
 21 53  1  0
 22 54  1  0
 22 55  1  0
 25 56  1  0
 26 57  1  0
 28 58  1  0
 30 59  1  0
 30 60  1  0
 31 61  1  0
 31 62  1  0
 32 63  1  0
M  END
>  <Energy>  (794) 
-68.677534260719753

>  <compound_id>  (794) 
437

>  <target_id>  (794) 
1

>  <reference_id>  (794) 
187

>  <inspiration_ids>  (794) 
[187, 157]

>  <energy_score>  (794) 
-57.66885085100546

>  <distance_score>  (794) 
1.8035113954141413

>  <path>  (794) 
/opt/xchem-fragalysis-2/maxwin/BulkDock/SCRATCH/505736/C437-P187/C437-P187.minimised.mol

>  <scratch_subdir>  (794) 
/opt/xchem-fragalysis-2/maxwin/BulkDock/SCRATCH/505736/C437-P187

>  <fragmenstein_runtime>  (794) 
9.583536148071289

>  <fragmenstein_outcome>  (794) 
too moved

>  <fragmenstein_mode>  (794) 
expansion

>  <fragmenstein_error>  (794) 


$$$$
C437-P157
     RDKit          3D

 63 66  0  0  0  0  0  0  0  0999 V2000
    0.7543   -3.2684   35.4051 C   0  0  0  0  0  0  0  0  0  0  0  0
    1.9113   -3.4950   34.4798 C   0  0  0  0  0  0  0  0  0  0  0  0
    2.8118   -4.5212   34.6924 C   0  0  0  0  0  0  0  0  0  0  0  0
    3.8611   -4.6825   33.7898 C   0  0  0  0  0  0  0  0  0  0  0  0
    4.0105   -3.8087   32.7169 C   0  0  0  0  0  0  0  0  0  0  0  0
    3.0533   -2.8418   32.5586 C   0  0  0  0  0  0  0  0  0  0  0  0
    2.9260   -2.0697   31.4371 N   0  0  0  0  0  0  0  0  0  0  0  0
    3.9239   -1.8142   30.2633 C   0  0  0  0  0  0  0  0  0  0  0  0
    5.0302   -2.1641   30.1203 O   0  0  0  0  0  0  0  0  0  0  0  0
    3.0353   -1.0409   29.2388 C   0  0  0  0  0  0  0  0  0  0  0  0
    3.4413    0.1494   28.4083 C   0  0  0  0  0  0  0  0  0  0  0  0
    2.0811    0.8581   28.0942 C   0  0  0  0  0  0  0  0  0  0  0  0
    1.0029    0.1246   28.9194 C   0  0  0  0  0  0  0  0  0  0  0  0
   -0.0864    0.9840   29.5960 C   0  0  0  0  0  0  0  0  0  0  0  0
   -1.0082    0.1527   30.5458 C   0  0  0  0  0  0  0  0  0  0  0  0
   -0.7787   -1.3425   30.3894 C   0  0  0  0  0  0  0  0  0  0  0  0
   -1.4549   -2.4130   31.6146 S   0  0  0  0  0  0  0  0  0  0  0  0
   -1.4313   -1.7165   32.8825 O   0  0  0  0  0  0  0  0  0  0  0  0
   -2.6522   -3.0670   31.1547 O   0  0  0  0  0  0  0  0  0  0  0  0
   -0.2404   -3.5845   31.7179 N   0  0  0  0  0  0  0  0  0  0  0  0
    0.1984   -4.3200   30.5152 C   0  0  0  0  0  0  0  0  0  0  0  0
    1.0240   -5.5541   30.8522 C   0  0  0  0  0  0  0  0  0  0  0  0
    0.2931   -6.4510   31.8008 C   0  0  0  0  0  0  0  0  0  0  0  0
   -0.7189   -7.1944   31.3117 N   0  0  0  0  0  0  0  0  0  0  0  0
   -1.4669   -7.8335   32.2306 C   0  0  0  0  0  0  0  0  0  0  0  0
   -1.2492   -7.7533   33.5794 C   0  0  0  0  0  0  0  0  0  0  0  0
   -0.1609   -7.0246   33.9393 C   0  0  0  0  0  0  0  0  0  0  0  0
    0.1712   -6.9048   35.2476 O   0  0  0  0  0  0  0  0  0  0  0  0
    0.6495   -6.3836   33.0985 N   0  0  0  0  0  0  0  0  0  0  0  0
   -0.8956   -1.6884   28.9206 C   0  0  0  0  0  0  0  0  0  0  0  0
    0.2106   -0.9515   28.1234 C   0  0  0  0  0  0  0  0  0  0  0  0
    1.8749   -0.4579   29.9557 N   0  0  0  0  0  0  0  0  0  0  0  0
    1.9965   -2.6986   33.3923 N   0  0  0  0  0  0  0  0  0  0  0  0
   -0.0467   -3.9805   35.1880 H   0  0  0  0  0  0  0  0  0  0  0  0
    0.3577   -2.2553   35.2831 H   0  0  0  0  0  0  0  0  0  0  0  0
    1.0647   -3.3826   36.4483 H   0  0  0  0  0  0  0  0  0  0  0  0
    2.7433   -5.1616   35.5648 H   0  0  0  0  0  0  0  0  0  0  0  0
    4.5943   -5.4695   33.9488 H   0  0  0  0  0  0  0  0  0  0  0  0
    4.8284   -3.9266   32.0162 H   0  0  0  0  0  0  0  0  0  0  0  0
    2.0722   -1.5501   31.2752 H   0  0  0  0  0  0  0  0  0  0  0  0
    2.7034   -1.8460   28.5723 H   0  0  0  0  0  0  0  0  0  0  0  0
    3.9526   -0.1465   27.4868 H   0  0  0  0  0  0  0  0  0  0  0  0
    4.1048    0.8236   28.9621 H   0  0  0  0  0  0  0  0  0  0  0  0
    1.8723    0.8158   27.0235 H   0  0  0  0  0  0  0  0  0  0  0  0
    2.1582    1.9142   28.3787 H   0  0  0  0  0  0  0  0  0  0  0  0
    0.3655    1.8038   30.1693 H   0  0  0  0  0  0  0  0  0  0  0  0
   -0.7069    1.4629   28.8272 H   0  0  0  0  0  0  0  0  0  0  0  0
   -0.8096    0.4632   31.5784 H   0  0  0  0  0  0  0  0  0  0  0  0
   -2.0588    0.3916   30.3485 H   0  0  0  0  0  0  0  0  0  0  0  0
    0.2391   -1.5164   30.6926 H   0  0  0  0  0  0  0  0  0  0  0  0
    0.5000   -3.2933   32.3734 H   0  0  0  0  0  0  0  0  0  0  0  0
    0.8300   -3.6689   29.9039 H   0  0  0  0  0  0  0  0  0  0  0  0
   -0.6685   -4.6162   29.9245 H   0  0  0  0  0  0  0  0  0  0  0  0
    1.2552   -6.1058   29.9352 H   0  0  0  0  0  0  0  0  0  0  0  0
    1.9821   -5.2657   31.2912 H   0  0  0  0  0  0  0  0  0  0  0  0
   -2.3016   -8.4109   31.8525 H   0  0  0  0  0  0  0  0  0  0  0  0
   -1.8752   -8.2426   34.3082 H   0  0  0  0  0  0  0  0  0  0  0  0
    0.9038   -6.2755   35.1791 H   0  0  0  0  0  0  0  0  0  0  0  0
   -0.8406   -2.7582   28.7165 H   0  0  0  0  0  0  0  0  0  0  0  0
   -1.8774   -1.3793   28.5415 H   0  0  0  0  0  0  0  0  0  0  0  0
    0.8827   -1.7025   27.7107 H   0  0  0  0  0  0  0  0  0  0  0  0
   -0.2720   -0.4567   27.2738 H   0  0  0  0  0  0  0  0  0  0  0  0
    2.2239    0.3150   30.5398 H   0  0  0  0  0  0  0  0  0  0  0  0
  1  2  1  0
  2  3  2  0
  3  4  1  0
  4  5  2  0
  5  6  1  0
  6  7  1  0
  7  8  1  0
  8  9  2  0
  8 10  1  0
 10 11  1  0
 11 12  1  0
 12 13  1  0
 13 14  1  0
 14 15  1  0
 15 16  1  0
 16 17  1  0
 17 18  2  0
 17 19  2  0
 17 20  1  0
 20 21  1  0
 21 22  1  0
 22 23  1  0
 23 24  2  0
 24 25  1  0
 25 26  2  0
 26 27  1  0
 27 28  1  0
 27 29  2  0
 16 30  1  0
 30 31  1  0
 13 32  1  0
  6 33  2  0
 33  2  1  0
 32 10  1  0
 31 13  1  0
 29 23  1  0
  1 34  1  0
  1 35  1  0
  1 36  1  0
  3 37  1  0
  4 38  1  0
  5 39  1  0
  7 40  1  0
 10 41  1  0
 11 42  1  0
 11 43  1  0
 12 44  1  0
 12 45  1  0
 14 46  1  0
 14 47  1  0
 15 48  1  0
 15 49  1  0
 16 50  1  0
 20 51  1  0
 21 52  1  0
 21 53  1  0
 22 54  1  0
 22 55  1  0
 25 56  1  0
 26 57  1  0
 28 58  1  0
 30 59  1  0
 30 60  1  0
 31 61  1  0
 31 62  1  0
 32 63  1  0
M  END
>  <Energy>  (795) 
-48.359721699931214

>  <compound_id>  (795) 
437

>  <target_id>  (795) 
1

>  <reference_id>  (795) 
157

>  <inspiration_ids>  (795) 
[187, 157]

>  <energy_score>  (795) 
-37.35103829021946

>  <distance_score>  (795) 
2.0540056450968827

>  <path>  (795) 
/opt/xchem-fragalysis-2/maxwin/BulkDock/SCRATCH/505736/C437-P157/C437-P157.minimised.mol

>  <scratch_subdir>  (795) 
/opt/xchem-fragalysis-2/maxwin/BulkDock/SCRATCH/505736/C437-P157

>  <fragmenstein_runtime>  (795) 
13.1379075050354

>  <fragmenstein_outcome>  (795) 
too moved

>  <fragmenstein_mode>  (795) 
expansion

>  <fragmenstein_error>  (795) 


$$$$
C2874-P187
     RDKit          3D

 54 56  0  0  0  0  0  0  0  0999 V2000
   -0.9631   -8.1187   42.1307 C   0  0  0  0  0  0  0  0  0  0  0  0
    0.5519   -8.0671   42.0533 C   0  0  0  0  0  0  0  0  0  0  0  0
    1.0352   -8.0989   40.6100 C   0  0  0  0  0  0  0  0  0  0  0  0
    1.5077   -9.0495   40.1213 O   0  0  0  0  0  0  0  0  0  0  0  0
    0.7540   -6.6897   40.0094 N   0  0  0  0  0  0  0  0  0  0  0  0
    0.9047   -6.2152   38.7098 C   0  0  0  0  0  0  0  0  0  0  0  0
    0.9267   -7.0650   37.6173 C   0  0  0  0  0  0  0  0  0  0  0  0
    1.0264   -6.5211   36.3210 C   0  0  0  0  0  0  0  0  0  0  0  0
    1.1002   -5.1292   36.0840 C   0  0  0  0  0  0  0  0  0  0  0  0
    1.3220   -4.7074   34.7793 O   0  0  0  0  0  0  0  0  0  0  0  0
    0.8687   -3.5093   34.2304 C   0  0  0  0  0  0  0  0  0  0  0  0
    1.5547   -3.0633   33.0772 C   0  0  0  0  0  0  0  0  0  0  0  0
    0.9678   -2.1866   32.1645 C   0  0  0  0  0  0  0  0  0  0  0  0
   -0.3456   -1.8160   32.4038 C   0  0  0  0  0  0  0  0  0  0  0  0
   -1.4578   -1.9710   31.0365 S   0  0  0  0  0  0  0  0  0  0  0  0
   -2.7821   -1.8691   31.6015 O   0  0  0  0  0  0  0  0  0  0  0  0
   -0.9886   -1.1520   29.9585 O   0  0  0  0  0  0  0  0  0  0  0  0
   -1.1849   -3.6019   30.6935 N   0  0  0  0  0  0  0  0  0  0  0  0
   -0.1549   -3.9842   29.6924 C   0  0  0  0  0  0  0  0  0  0  0  0
    0.8461   -5.0278   30.2042 C   0  0  0  0  0  0  0  0  0  0  0  0
    0.2014   -6.1104   31.0178 C   0  0  0  0  0  0  0  0  0  0  0  0
    0.0170   -7.3096   30.4459 N   0  0  0  0  0  0  0  0  0  0  0  0
   -0.6391   -8.2203   31.1896 C   0  0  0  0  0  0  0  0  0  0  0  0
   -1.1249   -7.9756   32.4438 C   0  0  0  0  0  0  0  0  0  0  0  0
   -0.8634   -6.7336   32.9248 C   0  0  0  0  0  0  0  0  0  0  0  0
   -1.3342   -6.3962   34.1503 O   0  0  0  0  0  0  0  0  0  0  0  0
   -0.2239   -5.7735   32.2538 N   0  0  0  0  0  0  0  0  0  0  0  0
   -0.9380   -2.0023   33.6506 C   0  0  0  0  0  0  0  0  0  0  0  0
   -0.3425   -2.8939   34.5414 C   0  0  0  0  0  0  0  0  0  0  0  0
    1.1087   -4.3029   37.1964 C   0  0  0  0  0  0  0  0  0  0  0  0
    1.0066   -4.8442   38.4831 C   0  0  0  0  0  0  0  0  0  0  0  0
    1.0868   -3.9602   39.5292 O   0  0  0  0  0  0  0  0  0  0  0  0
   -1.2886   -8.1805   43.1736 H   0  0  0  0  0  0  0  0  0  0  0  0
   -1.4186   -7.2281   41.6867 H   0  0  0  0  0  0  0  0  0  0  0  0
   -1.3526   -8.9918   41.5964 H   0  0  0  0  0  0  0  0  0  0  0  0
    0.9801   -8.9326   42.5720 H   0  0  0  0  0  0  0  0  0  0  0  0
    0.9397   -7.1735   42.5542 H   0  0  0  0  0  0  0  0  0  0  0  0
    0.4102   -6.0742   40.7362 H   0  0  0  0  0  0  0  0  0  0  0  0
    0.8402   -8.1438   37.7379 H   0  0  0  0  0  0  0  0  0  0  0  0
    1.0405   -7.2051   35.4744 H   0  0  0  0  0  0  0  0  0  0  0  0
    2.5177   -3.5130   32.8401 H   0  0  0  0  0  0  0  0  0  0  0  0
    1.4455   -1.9918   31.2085 H   0  0  0  0  0  0  0  0  0  0  0  0
   -1.1106   -4.1387   31.5670 H   0  0  0  0  0  0  0  0  0  0  0  0
    0.3933   -3.1184   29.3100 H   0  0  0  0  0  0  0  0  0  0  0  0
   -0.7066   -4.3894   28.8403 H   0  0  0  0  0  0  0  0  0  0  0  0
    1.6174   -4.5537   30.8141 H   0  0  0  0  0  0  0  0  0  0  0  0
    1.3816   -5.4663   29.3546 H   0  0  0  0  0  0  0  0  0  0  0  0
   -0.7495   -9.1997   30.7332 H   0  0  0  0  0  0  0  0  0  0  0  0
   -1.6818   -8.6970   33.0152 H   0  0  0  0  0  0  0  0  0  0  0  0
   -1.1219   -5.4498   34.2202 H   0  0  0  0  0  0  0  0  0  0  0  0
   -1.9657   -1.6977   33.8461 H   0  0  0  0  0  0  0  0  0  0  0  0
   -0.9126   -3.2066   35.4148 H   0  0  0  0  0  0  0  0  0  0  0  0
    1.2328   -3.2294   37.0864 H   0  0  0  0  0  0  0  0  0  0  0  0
    1.5971   -4.4106   40.2238 H   0  0  0  0  0  0  0  0  0  0  0  0
  1  2  1  0
  2  3  1  0
  3  4  2  0
  3  5  1  0
  5  6  1  0
  6  7  2  0
  7  8  1  0
  8  9  2  0
  9 10  1  0
 10 11  1  0
 11 12  2  0
 12 13  1  0
 13 14  2  0
 14 15  1  0
 15 16  2  0
 15 17  2  0
 15 18  1  0
 18 19  1  0
 19 20  1  0
 20 21  1  0
 21 22  2  0
 22 23  1  0
 23 24  2  0
 24 25  1  0
 25 26  1  0
 25 27  2  0
 14 28  1  0
 28 29  2  0
  9 30  1  0
 30 31  2  0
 31 32  1  0
 31  6  1  0
 29 11  1  0
 27 21  1  0
  1 33  1  0
  1 34  1  0
  1 35  1  0
  2 36  1  0
  2 37  1  0
  5 38  1  0
  7 39  1  0
  8 40  1  0
 12 41  1  0
 13 42  1  0
 18 43  1  0
 19 44  1  0
 19 45  1  0
 20 46  1  0
 20 47  1  0
 23 48  1  0
 24 49  1  0
 26 50  1  0
 28 51  1  0
 29 52  1  0
 30 53  1  0
 32 54  1  0
M  END
>  <Energy>  (796) 
-23.323603008680095

>  <compound_id>  (796) 
2874

>  <target_id>  (796) 
1

>  <reference_id>  (796) 
187

>  <inspiration_ids>  (796) 
[187, 159]

>  <energy_score>  (796) 
-15.892748637699846

>  <distance_score>  (796) 
3.4254284903537617

>  <path>  (796) 
/opt/xchem-fragalysis-2/maxwin/BulkDock/SCRATCH/505736/C2874-P187/C2874-P187.minimised.mol

>  <scratch_subdir>  (796) 
/opt/xchem-fragalysis-2/maxwin/BulkDock/SCRATCH/505736/C2874-P187

>  <fragmenstein_runtime>  (796) 
10.791100263595581

>  <fragmenstein_outcome>  (796) 
too moved

>  <fragmenstein_mode>  (796) 
expansion

>  <fragmenstein_error>  (796) 


$$$$
C2874-P159
     RDKit          3D

 54 56  0  0  0  0  0  0  0  0999 V2000
   -0.7797   -8.8936   42.5097 C   0  0  0  0  0  0  0  0  0  0  0  0
   -0.1720   -8.8868   41.1181 C   0  0  0  0  0  0  0  0  0  0  0  0
   -0.1078   -7.4830   40.5222 C   0  0  0  0  0  0  0  0  0  0  0  0
   -0.5100   -6.5233   41.0548 O   0  0  0  0  0  0  0  0  0  0  0  0
    0.5806   -7.6540   39.1327 N   0  0  0  0  0  0  0  0  0  0  0  0
    0.8168   -6.7240   38.1176 C   0  0  0  0  0  0  0  0  0  0  0  0
    0.2998   -5.4319   38.1696 C   0  0  0  0  0  0  0  0  0  0  0  0
    0.5253   -4.5189   37.1099 C   0  0  0  0  0  0  0  0  0  0  0  0
    1.2369   -4.8881   35.9666 C   0  0  0  0  0  0  0  0  0  0  0  0
    1.6087   -4.1085   34.8829 O   0  0  0  0  0  0  0  0  0  0  0  0
    0.9007   -3.1220   34.2212 C   0  0  0  0  0  0  0  0  0  0  0  0
    1.5314   -2.6437   33.0416 C   0  0  0  0  0  0  0  0  0  0  0  0
    0.8547   -1.8887   32.0840 C   0  0  0  0  0  0  0  0  0  0  0  0
   -0.4889   -1.6488   32.3143 C   0  0  0  0  0  0  0  0  0  0  0  0
   -1.5812   -2.0202   30.9703 S   0  0  0  0  0  0  0  0  0  0  0  0
   -2.9161   -1.8826   31.5002 O   0  0  0  0  0  0  0  0  0  0  0  0
   -1.1153   -1.3596   29.7875 O   0  0  0  0  0  0  0  0  0  0  0  0
   -1.2292   -3.6768   30.8864 N   0  0  0  0  0  0  0  0  0  0  0  0
   -0.1551   -4.1280   29.9608 C   0  0  0  0  0  0  0  0  0  0  0  0
    0.7601   -5.1856   30.5837 C   0  0  0  0  0  0  0  0  0  0  0  0
    0.0299   -6.1762   31.4457 C   0  0  0  0  0  0  0  0  0  0  0  0
   -0.3269   -7.3513   30.9073 N   0  0  0  0  0  0  0  0  0  0  0  0
   -0.9816   -8.1996   31.7266 C   0  0  0  0  0  0  0  0  0  0  0  0
   -1.3204   -7.9219   33.0193 C   0  0  0  0  0  0  0  0  0  0  0  0
   -0.9171   -6.6997   33.4479 C   0  0  0  0  0  0  0  0  0  0  0  0
   -1.2503   -6.3243   34.7087 O   0  0  0  0  0  0  0  0  0  0  0  0
   -0.2630   -5.7959   32.7082 N   0  0  0  0  0  0  0  0  0  0  0  0
   -1.0567   -1.8519   33.5706 C   0  0  0  0  0  0  0  0  0  0  0  0
   -0.3714   -2.6391   34.4969 C   0  0  0  0  0  0  0  0  0  0  0  0
    1.7905   -6.1829   35.9626 C   0  0  0  0  0  0  0  0  0  0  0  0
    1.5920   -7.0754   37.0175 C   0  0  0  0  0  0  0  0  0  0  0  0
    2.2550   -8.2667   36.9453 O   0  0  0  0  0  0  0  0  0  0  0  0
   -0.1925   -8.2766   43.1978 H   0  0  0  0  0  0  0  0  0  0  0  0
   -0.8129   -9.9131   42.9059 H   0  0  0  0  0  0  0  0  0  0  0  0
   -1.8012   -8.4991   42.4939 H   0  0  0  0  0  0  0  0  0  0  0  0
   -0.7823   -9.5122   40.4594 H   0  0  0  0  0  0  0  0  0  0  0  0
    0.8416   -9.3001   41.1607 H   0  0  0  0  0  0  0  0  0  0  0  0
    0.7287   -8.6423   38.9458 H   0  0  0  0  0  0  0  0  0  0  0  0
   -0.2813   -5.0985   39.0275 H   0  0  0  0  0  0  0  0  0  0  0  0
    0.1585   -3.5035   37.2290 H   0  0  0  0  0  0  0  0  0  0  0  0
    2.5518   -2.9653   32.8332 H   0  0  0  0  0  0  0  0  0  0  0  0
    1.3120   -1.6882   31.1190 H   0  0  0  0  0  0  0  0  0  0  0  0
   -1.1049   -4.0404   31.8391 H   0  0  0  0  0  0  0  0  0  0  0  0
    0.4597   -3.3005   29.5967 H   0  0  0  0  0  0  0  0  0  0  0  0
   -0.6584   -4.5374   29.0833 H   0  0  0  0  0  0  0  0  0  0  0  0
    1.5243   -4.7025   31.1994 H   0  0  0  0  0  0  0  0  0  0  0  0
    1.3075   -5.7094   29.7923 H   0  0  0  0  0  0  0  0  0  0  0  0
   -1.1914   -9.1810   31.3146 H   0  0  0  0  0  0  0  0  0  0  0  0
   -1.8599   -8.6090   33.6517 H   0  0  0  0  0  0  0  0  0  0  0  0
   -1.0839   -5.3654   34.6906 H   0  0  0  0  0  0  0  0  0  0  0  0
   -2.1111   -1.6479   33.7563 H   0  0  0  0  0  0  0  0  0  0  0  0
   -0.9104   -2.9441   35.3878 H   0  0  0  0  0  0  0  0  0  0  0  0
    2.4133   -6.4863   35.1249 H   0  0  0  0  0  0  0  0  0  0  0  0
    2.4338   -8.5400   37.8631 H   0  0  0  0  0  0  0  0  0  0  0  0
  1  2  1  0
  2  3  1  0
  3  4  2  0
  3  5  1  0
  5  6  1  0
  6  7  2  0
  7  8  1  0
  8  9  2  0
  9 10  1  0
 10 11  1  0
 11 12  2  0
 12 13  1  0
 13 14  2  0
 14 15  1  0
 15 16  2  0
 15 17  2  0
 15 18  1  0
 18 19  1  0
 19 20  1  0
 20 21  1  0
 21 22  2  0
 22 23  1  0
 23 24  2  0
 24 25  1  0
 25 26  1  0
 25 27  2  0
 14 28  1  0
 28 29  2  0
  9 30  1  0
 30 31  2  0
 31 32  1  0
 31  6  1  0
 29 11  1  0
 27 21  1  0
  1 33  1  0
  1 34  1  0
  1 35  1  0
  2 36  1  0
  2 37  1  0
  5 38  1  0
  7 39  1  0
  8 40  1  0
 12 41  1  0
 13 42  1  0
 18 43  1  0
 19 44  1  0
 19 45  1  0
 20 46  1  0
 20 47  1  0
 23 48  1  0
 24 49  1  0
 26 50  1  0
 28 51  1  0
 29 52  1  0
 30 53  1  0
 32 54  1  0
M  END
>  <Energy>  (797) 
-20.286810099610374

>  <compound_id>  (797) 
2874

>  <target_id>  (797) 
1

>  <reference_id>  (797) 
159

>  <inspiration_ids>  (797) 
[187, 159]

>  <energy_score>  (797) 
-12.855955728629105

>  <distance_score>  (797) 
3.306649870974564

>  <path>  (797) 
/opt/xchem-fragalysis-2/maxwin/BulkDock/SCRATCH/505736/C2874-P159/C2874-P159.minimised.mol

>  <scratch_subdir>  (797) 
/opt/xchem-fragalysis-2/maxwin/BulkDock/SCRATCH/505736/C2874-P159

>  <fragmenstein_runtime>  (797) 
10.392921924591064

>  <fragmenstein_outcome>  (797) 
too moved

>  <fragmenstein_mode>  (797) 
expansion

>  <fragmenstein_error>  (797) 


$$$$
C2875-P187
     RDKit          3D

 53 55  0  0  0  0  0  0  0  0999 V2000
    1.5386   -0.3909   33.5597 C   0  0  0  0  0  0  0  0  0  0  0  0
    0.9581    0.8867   32.9329 C   0  0  0  0  0  0  0  0  0  0  0  0
    1.1410    2.0644   33.8974 C   0  0  0  0  0  0  0  0  0  0  0  0
    1.6129    1.1915   31.5812 C   0  0  0  0  0  0  0  0  0  0  0  0
    1.3798    0.1010   30.6460 N   0  0  0  0  0  0  0  0  0  0  0  0
    0.5699    0.6904   29.5838 C   0  0  0  0  0  0  0  0  0  0  0  0
    0.7484   -0.1878   28.3493 C   0  0  0  0  0  0  0  0  0  0  0  0
    0.3474   -1.6335   28.7245 C   0  0  0  0  0  0  0  0  0  0  0  0
   -0.9990   -1.7863   29.4544 C   0  0  0  0  0  0  0  0  0  0  0  0
   -0.9825   -2.5450   31.1112 S   0  0  0  0  0  0  0  0  0  0  0  0
   -0.8357   -1.5528   32.1469 O   0  0  0  0  0  0  0  0  0  0  0  0
   -2.0850   -3.4799   31.2211 O   0  0  0  0  0  0  0  0  0  0  0  0
    0.4102   -3.4874   31.1074 N   0  0  0  0  0  0  0  0  0  0  0  0
    0.4603   -4.5640   30.0936 C   0  0  0  0  0  0  0  0  0  0  0  0
    1.2688   -5.7479   30.5710 C   0  0  0  0  0  0  0  0  0  0  0  0
    0.5280   -6.4599   31.6590 C   0  0  0  0  0  0  0  0  0  0  0  0
   -0.4855   -7.2723   31.3033 N   0  0  0  0  0  0  0  0  0  0  0  0
   -1.1902   -7.8009   32.3199 C   0  0  0  0  0  0  0  0  0  0  0  0
   -0.9227   -7.5511   33.6441 C   0  0  0  0  0  0  0  0  0  0  0  0
    0.1485   -6.7326   33.8808 C   0  0  0  0  0  0  0  0  0  0  0  0
    0.5575   -6.4500   35.1487 O   0  0  0  0  0  0  0  0  0  0  0  0
    0.8909   -6.1752   32.9197 N   0  0  0  0  0  0  0  0  0  0  0  0
   -1.7637   -0.4855   29.4823 C   0  0  0  0  0  0  0  0  0  0  0  0
   -0.9430    0.7304   29.8711 C   0  0  0  0  0  0  0  0  0  0  0  0
    1.1040    2.0378   29.5192 N   0  0  0  0  0  0  0  0  0  0  0  0
    1.1117    2.3747   30.9583 O   0  0  0  0  0  0  0  0  0  0  0  0
    0.9837   -0.6565   34.4660 H   0  0  0  0  0  0  0  0  0  0  0  0
    2.5856   -0.2385   33.8461 H   0  0  0  0  0  0  0  0  0  0  0  0
    1.5132   -1.2507   32.8870 H   0  0  0  0  0  0  0  0  0  0  0  0
   -0.1223    0.7659   32.8121 H   0  0  0  0  0  0  0  0  0  0  0  0
    0.6667    2.9704   33.5060 H   0  0  0  0  0  0  0  0  0  0  0  0
    2.2016    2.2808   34.0646 H   0  0  0  0  0  0  0  0  0  0  0  0
    0.6833    1.8446   34.8679 H   0  0  0  0  0  0  0  0  0  0  0  0
    2.6928    1.3305   31.7248 H   0  0  0  0  0  0  0  0  0  0  0  0
    2.2900   -0.0845   30.2294 H   0  0  0  0  0  0  0  0  0  0  0  0
    0.1306    0.1777   27.5199 H   0  0  0  0  0  0  0  0  0  0  0  0
    1.7855   -0.1820   27.9896 H   0  0  0  0  0  0  0  0  0  0  0  0
    0.3102   -2.2216   27.8103 H   0  0  0  0  0  0  0  0  0  0  0  0
    1.1767   -2.0557   29.2958 H   0  0  0  0  0  0  0  0  0  0  0  0
   -1.5874   -2.5123   28.8776 H   0  0  0  0  0  0  0  0  0  0  0  0
    0.6109   -3.7799   32.0717 H   0  0  0  0  0  0  0  0  0  0  0  0
   -0.5420   -4.8835   29.8042 H   0  0  0  0  0  0  0  0  0  0  0  0
    0.9426   -4.1789   29.1919 H   0  0  0  0  0  0  0  0  0  0  0  0
    2.2555   -5.4308   30.9272 H   0  0  0  0  0  0  0  0  0  0  0  0
    1.4257   -6.4368   29.7352 H   0  0  0  0  0  0  0  0  0  0  0  0
   -2.0088   -8.4544   32.0369 H   0  0  0  0  0  0  0  0  0  0  0  0
   -1.5060   -8.0020   34.4329 H   0  0  0  0  0  0  0  0  0  0  0  0
   -0.0419   -6.8946   35.7688 H   0  0  0  0  0  0  0  0  0  0  0  0
   -2.1507   -0.3166   28.4690 H   0  0  0  0  0  0  0  0  0  0  0  0
   -2.6319   -0.5451   30.1440 H   0  0  0  0  0  0  0  0  0  0  0  0
   -1.3808    1.5577   29.2986 H   0  0  0  0  0  0  0  0  0  0  0  0
   -1.1215    0.9293   30.9293 H   0  0  0  0  0  0  0  0  0  0  0  0
    0.3952    2.6850   29.1710 H   0  0  0  0  0  0  0  0  0  0  0  0
  1  2  1  0
  2  3  1  0
  2  4  1  0
  4  5  1  0
  5  6  1  0
  6  7  1  0
  7  8  1  0
  8  9  1  0
  9 10  1  0
 10 11  2  0
 10 12  2  0
 10 13  1  0
 13 14  1  0
 14 15  1  0
 15 16  1  0
 16 17  2  0
 17 18  1  0
 18 19  2  0
 19 20  1  0
 20 21  1  0
 20 22  2  0
  9 23  1  0
 23 24  1  0
  6 25  1  0
 25 26  1  0
 26  4  1  0
 24  6  1  0
 22 16  1  0
  1 27  1  0
  1 28  1  0
  1 29  1  0
  2 30  1  0
  3 31  1  0
  3 32  1  0
  3 33  1  0
  4 34  1  0
  5 35  1  0
  7 36  1  0
  7 37  1  0
  8 38  1  0
  8 39  1  0
  9 40  1  0
 13 41  1  0
 14 42  1  0
 14 43  1  0
 15 44  1  0
 15 45  1  0
 18 46  1  0
 19 47  1  0
 21 48  1  0
 23 49  1  0
 23 50  1  0
 24 51  1  0
 24 52  1  0
 25 53  1  0
M  END
>  <Energy>  (798) 
-100.59455338180337

>  <compound_id>  (798) 
2875

>  <target_id>  (798) 
1

>  <reference_id>  (798) 
187

>  <inspiration_ids>  (798) 
[187, 163]

>  <energy_score>  (798) 
-58.769294521686106

>  <distance_score>  (798) 
1.4323893148798261

>  <path>  (798) 
/opt/xchem-fragalysis-2/maxwin/BulkDock/SCRATCH/505736/C2875-P187/C2875-P187.minimised.mol

>  <scratch_subdir>  (798) 
/opt/xchem-fragalysis-2/maxwin/BulkDock/SCRATCH/505736/C2875-P187

>  <fragmenstein_runtime>  (798) 
8.85873818397522

>  <fragmenstein_outcome>  (798) 
too moved

>  <fragmenstein_mode>  (798) 
expansion

>  <fragmenstein_error>  (798) 


$$$$
C2875-P163
     RDKit          3D

 53 55  0  0  0  0  0  0  0  0999 V2000
    1.5704   -0.5479   33.5980 C   0  0  0  0  0  0  0  0  0  0  0  0
    1.0782    0.7744   32.9928 C   0  0  0  0  0  0  0  0  0  0  0  0
    1.3217    1.9164   33.9868 C   0  0  0  0  0  0  0  0  0  0  0  0
    1.7697    1.0657   31.6563 C   0  0  0  0  0  0  0  0  0  0  0  0
    1.4689    0.0274   30.6722 N   0  0  0  0  0  0  0  0  0  0  0  0
    0.6896    0.7264   29.6489 C   0  0  0  0  0  0  0  0  0  0  0  0
    0.7767   -0.0996   28.3678 C   0  0  0  0  0  0  0  0  0  0  0  0
    0.2683   -1.5279   28.6696 C   0  0  0  0  0  0  0  0  0  0  0  0
   -1.0556   -1.6227   29.4493 C   0  0  0  0  0  0  0  0  0  0  0  0
   -1.0468   -2.4711   31.0627 S   0  0  0  0  0  0  0  0  0  0  0  0
   -0.8706   -1.5158   32.1302 O   0  0  0  0  0  0  0  0  0  0  0  0
   -2.1745   -3.3793   31.1312 O   0  0  0  0  0  0  0  0  0  0  0  0
    0.3260   -3.4181   31.0197 N   0  0  0  0  0  0  0  0  0  0  0  0
    0.4201   -4.4848   30.0136 C   0  0  0  0  0  0  0  0  0  0  0  0
    1.2359   -5.6546   30.5279 C   0  0  0  0  0  0  0  0  0  0  0  0
    0.5111   -6.3715   31.6240 C   0  0  0  0  0  0  0  0  0  0  0  0
   -0.5301   -7.1579   31.2824 N   0  0  0  0  0  0  0  0  0  0  0  0
   -1.2170   -7.6911   32.3080 C   0  0  0  0  0  0  0  0  0  0  0  0
   -0.9142   -7.4612   33.6281 C   0  0  0  0  0  0  0  0  0  0  0  0
    0.1916   -6.6839   33.8470 C   0  0  0  0  0  0  0  0  0  0  0  0
    0.6299   -6.4198   35.1090 O   0  0  0  0  0  0  0  0  0  0  0  0
    0.9416   -6.1589   32.8774 N   0  0  0  0  0  0  0  0  0  0  0  0
   -1.7144   -0.2655   29.5692 C   0  0  0  0  0  0  0  0  0  0  0  0
   -0.8079    0.8873   29.9595 C   0  0  0  0  0  0  0  0  0  0  0  0
    1.3369    2.0237   29.6265 N   0  0  0  0  0  0  0  0  0  0  0  0
    1.3741    2.3088   31.0741 O   0  0  0  0  0  0  0  0  0  0  0  0
    0.9885   -0.7987   34.4915 H   0  0  0  0  0  0  0  0  0  0  0  0
    2.6210   -0.4675   33.8999 H   0  0  0  0  0  0  0  0  0  0  0  0
    1.5003   -1.3881   32.9061 H   0  0  0  0  0  0  0  0  0  0  0  0
   -0.0057    0.7227   32.8579 H   0  0  0  0  0  0  0  0  0  0  0  0
    0.9060    2.8582   33.6137 H   0  0  0  0  0  0  0  0  0  0  0  0
    2.3917    2.0649   34.1680 H   0  0  0  0  0  0  0  0  0  0  0  0
    0.8422    1.7020   34.9480 H   0  0  0  0  0  0  0  0  0  0  0  0
    2.8553    1.1126   31.8164 H   0  0  0  0  0  0  0  0  0  0  0  0
    2.3672   -0.1565   30.2263 H   0  0  0  0  0  0  0  0  0  0  0  0
    0.1787    0.3558   27.5680 H   0  0  0  0  0  0  0  0  0  0  0  0
    1.8053   -0.1562   27.9881 H   0  0  0  0  0  0  0  0  0  0  0  0
    0.1402   -2.0443   27.7206 H   0  0  0  0  0  0  0  0  0  0  0  0
    1.0871   -2.0444   29.1693 H   0  0  0  0  0  0  0  0  0  0  0  0
   -1.7171   -2.2708   28.8575 H   0  0  0  0  0  0  0  0  0  0  0  0
    1.1733   -2.9174   31.2903 H   0  0  0  0  0  0  0  0  0  0  0  0
   -0.5722   -4.8200   29.7063 H   0  0  0  0  0  0  0  0  0  0  0  0
    0.9228   -4.1063   29.1206 H   0  0  0  0  0  0  0  0  0  0  0  0
    2.2167   -5.3166   30.8826 H   0  0  0  0  0  0  0  0  0  0  0  0
    1.4124   -6.3561   29.7061 H   0  0  0  0  0  0  0  0  0  0  0  0
   -2.0531   -8.3272   32.0349 H   0  0  0  0  0  0  0  0  0  0  0  0
   -1.4875   -7.9064   34.4260 H   0  0  0  0  0  0  0  0  0  0  0  0
   -0.1240   -6.5125   35.7099 H   0  0  0  0  0  0  0  0  0  0  0  0
   -2.1121   -0.0312   28.5745 H   0  0  0  0  0  0  0  0  0  0  0  0
   -2.5610   -0.2847   30.2599 H   0  0  0  0  0  0  0  0  0  0  0  0
   -1.1800    1.7470   29.3881 H   0  0  0  0  0  0  0  0  0  0  0  0
   -0.9727    1.1230   31.0132 H   0  0  0  0  0  0  0  0  0  0  0  0
    0.6868    2.7400   29.2991 H   0  0  0  0  0  0  0  0  0  0  0  0
  1  2  1  0
  2  3  1  0
  2  4  1  0
  4  5  1  0
  5  6  1  0
  6  7  1  0
  7  8  1  0
  8  9  1  0
  9 10  1  0
 10 11  2  0
 10 12  2  0
 10 13  1  0
 13 14  1  0
 14 15  1  0
 15 16  1  0
 16 17  2  0
 17 18  1  0
 18 19  2  0
 19 20  1  0
 20 21  1  0
 20 22  2  0
  9 23  1  0
 23 24  1  0
  6 25  1  0
 25 26  1  0
 26  4  1  0
 24  6  1  0
 22 16  1  0
  1 27  1  0
  1 28  1  0
  1 29  1  0
  2 30  1  0
  3 31  1  0
  3 32  1  0
  3 33  1  0
  4 34  1  0
  5 35  1  0
  7 36  1  0
  7 37  1  0
  8 38  1  0
  8 39  1  0
  9 40  1  0
 13 41  1  0
 14 42  1  0
 14 43  1  0
 15 44  1  0
 15 45  1  0
 18 46  1  0
 19 47  1  0
 21 48  1  0
 23 49  1  0
 23 50  1  0
 24 51  1  0
 24 52  1  0
 25 53  1  0
M  END
>  <Energy>  (799) 
-100.70971146924484

>  <compound_id>  (799) 
2875

>  <target_id>  (799) 
1

>  <reference_id>  (799) 
163

>  <inspiration_ids>  (799) 
[187, 163]

>  <energy_score>  (799) 
-58.88445260912698

>  <distance_score>  (799) 
1.3824884157947666

>  <path>  (799) 
/opt/xchem-fragalysis-2/maxwin/BulkDock/SCRATCH/505736/C2875-P163/C2875-P163.minimised.mol

>  <scratch_subdir>  (799) 
/opt/xchem-fragalysis-2/maxwin/BulkDock/SCRATCH/505736/C2875-P163

>  <fragmenstein_runtime>  (799) 
8.608135461807251

>  <fragmenstein_outcome>  (799) 
too moved

>  <fragmenstein_mode>  (799) 
expansion

>  <fragmenstein_error>  (799) 


$$$$
C2877-P187
     RDKit          3D

 53 55  0  0  0  0  0  0  0  0999 V2000
   -0.3431   -8.3556   30.2125 C   0  0  0  0  0  0  0  0  0  0  0  0
   -0.8124   -7.8701   31.5742 C   0  0  0  0  0  0  0  0  0  0  0  0
   -2.0653   -8.5413   31.9882 C   0  0  0  0  0  0  0  0  0  0  0  0
   -1.0613   -6.5046   31.3619 O   0  0  0  0  0  0  0  0  0  0  0  0
   -1.1089   -5.8123   32.5783 C   0  0  0  0  0  0  0  0  0  0  0  0
    0.2230   -5.9809   33.2538 C   0  0  0  0  0  0  0  0  0  0  0  0
    0.2349   -5.0138   34.4180 C   0  0  0  0  0  0  0  0  0  0  0  0
    1.6073   -4.4078   34.4851 C   0  0  0  0  0  0  0  0  0  0  0  0
    2.5351   -5.3969   34.9042 O   0  0  0  0  0  0  0  0  0  0  0  0
    1.9021   -3.7883   33.1811 N   0  0  0  0  0  0  0  0  0  0  0  0
    3.3849   -2.6396   33.2731 Br  0  0  0  0  0  0  0  0  0  0  0  0
    1.9333   -4.6914   32.0287 C   0  0  0  0  0  0  0  0  0  0  0  0
    1.2197   -4.3373   30.6982 C   0  0  0  0  0  0  0  0  0  0  0  0
    1.1929   -2.8757   30.3478 C   0  0  0  0  0  0  0  0  0  0  0  0
    0.4694   -2.1625   31.3835 N   0  0  0  0  0  0  0  0  0  0  0  0
   -1.1408   -1.7967   31.2836 S   0  0  0  0  0  0  0  0  0  0  0  0
   -1.4619   -1.0617   32.4868 O   0  0  0  0  0  0  0  0  0  0  0  0
   -1.8741   -2.9914   30.9267 O   0  0  0  0  0  0  0  0  0  0  0  0
   -1.1254   -0.6726   29.9266 C   0  0  0  0  0  0  0  0  0  0  0  0
   -1.6725   -1.0452   28.7014 C   0  0  0  0  0  0  0  0  0  0  0  0
   -1.6659   -0.1311   27.6500 C   0  0  0  0  0  0  0  0  0  0  0  0
   -1.0871    1.1195   27.8187 C   0  0  0  0  0  0  0  0  0  0  0  0
   -1.1223    2.0431   26.8192 O   0  0  0  0  0  0  0  0  0  0  0  0
   -0.4766    1.4625   29.0138 C   0  0  0  0  0  0  0  0  0  0  0  0
   -0.5080    0.5706   30.0851 C   0  0  0  0  0  0  0  0  0  0  0  0
    1.4152   -5.9784   32.3760 N   0  0  0  0  0  0  0  0  0  0  0  0
    0.2195   -7.4100   33.7001 C   0  0  0  0  0  0  0  0  0  0  0  0
    0.5213   -7.7979   34.8197 O   0  0  0  0  0  0  0  0  0  0  0  0
    0.1072   -8.2218   32.6071 O   0  0  0  0  0  0  0  0  0  0  0  0
    0.6849   -8.0549   30.0135 H   0  0  0  0  0  0  0  0  0  0  0  0
   -0.9476   -7.9040   29.4239 H   0  0  0  0  0  0  0  0  0  0  0  0
   -0.4126   -9.4369   30.1034 H   0  0  0  0  0  0  0  0  0  0  0  0
   -1.9095   -9.5846   31.7554 H   0  0  0  0  0  0  0  0  0  0  0  0
   -2.2352   -8.4653   33.0661 H   0  0  0  0  0  0  0  0  0  0  0  0
   -2.9450   -8.1610   31.4832 H   0  0  0  0  0  0  0  0  0  0  0  0
   -1.3166   -4.7671   32.3640 H   0  0  0  0  0  0  0  0  0  0  0  0
   -1.9018   -6.1927   33.2206 H   0  0  0  0  0  0  0  0  0  0  0  0
   -0.4861   -4.1953   34.2855 H   0  0  0  0  0  0  0  0  0  0  0  0
   -0.0222   -5.4962   35.3686 H   0  0  0  0  0  0  0  0  0  0  0  0
    1.5909   -3.6347   35.2634 H   0  0  0  0  0  0  0  0  0  0  0  0
    2.1182   -5.9337   35.6013 H   0  0  0  0  0  0  0  0  0  0  0  0
    2.9832   -4.8684   31.7627 H   0  0  0  0  0  0  0  0  0  0  0  0
    0.1841   -4.6710   30.6710 H   0  0  0  0  0  0  0  0  0  0  0  0
    1.7188   -4.8810   29.8836 H   0  0  0  0  0  0  0  0  0  0  0  0
    2.2065   -2.4696   30.2717 H   0  0  0  0  0  0  0  0  0  0  0  0
    0.7266   -2.7351   29.3679 H   0  0  0  0  0  0  0  0  0  0  0  0
    0.9195   -2.0109   32.2889 H   0  0  0  0  0  0  0  0  0  0  0  0
   -2.1116   -2.0276   28.5480 H   0  0  0  0  0  0  0  0  0  0  0  0
   -2.1111   -0.4091   26.7003 H   0  0  0  0  0  0  0  0  0  0  0  0
   -2.0273    2.0211   26.4576 H   0  0  0  0  0  0  0  0  0  0  0  0
   -0.0148    2.4407   29.1240 H   0  0  0  0  0  0  0  0  0  0  0  0
   -0.0533    0.8502   31.0322 H   0  0  0  0  0  0  0  0  0  0  0  0
    1.2307   -6.5308   31.5452 H   0  0  0  0  0  0  0  0  0  0  0  0
  1  2  1  0
  2  3  1  0
  2  4  1  0
  4  5  1  0
  5  6  1  0
  6  7  1  0
  7  8  1  0
  8  9  1  0
  8 10  1  0
 10 11  1  0
 10 12  1  0
 12 13  1  0
 13 14  1  0
 14 15  1  0
 15 16  1  0
 16 17  2  0
 16 18  2  0
 16 19  1  0
 19 20  2  0
 20 21  1  0
 21 22  2  0
 22 23  1  0
 22 24  1  0
 24 25  2  0
 12 26  1  0
  6 27  1  0
 27 28  2  0
 27 29  1  0
 29  2  1  0
 26  6  1  0
 25 19  1  0
  1 30  1  0
  1 31  1  0
  1 32  1  0
  3 33  1  0
  3 34  1  0
  3 35  1  0
  5 36  1  0
  5 37  1  0
  7 38  1  0
  7 39  1  0
  8 40  1  0
  9 41  1  0
 12 42  1  0
 13 43  1  0
 13 44  1  0
 14 45  1  0
 14 46  1  0
 15 47  1  0
 20 48  1  0
 21 49  1  0
 23 50  1  0
 24 51  1  0
 25 52  1  0
 26 53  1  0
M  END
>  <Energy>  (800) 
-43.106799114493718

>  <compound_id>  (800) 
2877

>  <target_id>  (800) 
1

>  <reference_id>  (800) 
187

>  <inspiration_ids>  (800) 
[187, 165]

>  <energy_score>  (800) 
-38.94749529747861

>  <distance_score>  (800) 
2.1385354099841365

>  <path>  (800) 
/opt/xchem-fragalysis-2/maxwin/BulkDock/SCRATCH/505736/C2877-P187/C2877-P187.minimised.mol

>  <scratch_subdir>  (800) 
/opt/xchem-fragalysis-2/maxwin/BulkDock/SCRATCH/505736/C2877-P187

>  <fragmenstein_runtime>  (800) 
8.112150192260742

>  <fragmenstein_outcome>  (800) 
too moved

>  <fragmenstein_mode>  (800) 
expansion

>  <fragmenstein_error>  (800) 


$$$$
C2877-P165
     RDKit          3D

 53 55  0  0  0  0  0  0  0  0999 V2000
   -0.4806   -7.7877   30.2846 C   0  0  0  0  0  0  0  0  0  0  0  0
   -0.9191   -7.6936   31.7330 C   0  0  0  0  0  0  0  0  0  0  0  0
   -1.9744   -8.6809   32.0739 C   0  0  0  0  0  0  0  0  0  0  0  0
   -1.5568   -6.4472   31.9057 O   0  0  0  0  0  0  0  0  0  0  0  0
   -1.3745   -5.9448   33.2151 C   0  0  0  0  0  0  0  0  0  0  0  0
    0.1037   -5.8359   33.4133 C   0  0  0  0  0  0  0  0  0  0  0  0
    0.4083   -4.9217   34.5672 C   0  0  0  0  0  0  0  0  0  0  0  0
    1.8809   -4.5600   34.5257 C   0  0  0  0  0  0  0  0  0  0  0  0
    2.6816   -5.6635   34.9120 O   0  0  0  0  0  0  0  0  0  0  0  0
    2.2619   -4.0262   33.2044 N   0  0  0  0  0  0  0  0  0  0  0  0
    4.0070   -3.3336   33.2225 Br  0  0  0  0  0  0  0  0  0  0  0  0
    2.0174   -4.9841   32.1311 C   0  0  0  0  0  0  0  0  0  0  0  0
    2.1824   -4.4719   30.6740 C   0  0  0  0  0  0  0  0  0  0  0  0
    1.1447   -3.4428   30.1694 C   0  0  0  0  0  0  0  0  0  0  0  0
    0.6717   -2.6183   31.2793 N   0  0  0  0  0  0  0  0  0  0  0  0
   -0.8719   -2.0113   31.3686 S   0  0  0  0  0  0  0  0  0  0  0  0
   -0.9342   -1.2382   32.5890 O   0  0  0  0  0  0  0  0  0  0  0  0
   -1.7935   -3.1037   31.1392 O   0  0  0  0  0  0  0  0  0  0  0  0
   -0.8733   -0.9028   30.0013 C   0  0  0  0  0  0  0  0  0  0  0  0
   -1.4232   -1.2932   28.7856 C   0  0  0  0  0  0  0  0  0  0  0  0
   -1.4531   -0.3828   27.7318 C   0  0  0  0  0  0  0  0  0  0  0  0
   -0.9111    0.8857   27.8877 C   0  0  0  0  0  0  0  0  0  0  0  0
   -0.9785    1.8038   26.8852 O   0  0  0  0  0  0  0  0  0  0  0  0
   -0.3087    1.2542   29.0783 C   0  0  0  0  0  0  0  0  0  0  0  0
   -0.3062    0.3660   30.1534 C   0  0  0  0  0  0  0  0  0  0  0  0
    0.6313   -5.3344   32.1474 N   0  0  0  0  0  0  0  0  0  0  0  0
    0.5382   -7.2532   33.5974 C   0  0  0  0  0  0  0  0  0  0  0  0
    1.2101   -7.6692   34.5350 O   0  0  0  0  0  0  0  0  0  0  0  0
    0.1974   -8.0331   32.5559 O   0  0  0  0  0  0  0  0  0  0  0  0
   -1.2583   -7.4181   29.6156 H   0  0  0  0  0  0  0  0  0  0  0  0
    0.4112   -7.1759   30.1190 H   0  0  0  0  0  0  0  0  0  0  0  0
   -0.2201   -8.8059   29.9889 H   0  0  0  0  0  0  0  0  0  0  0  0
   -2.9422   -8.3830   31.6720 H   0  0  0  0  0  0  0  0  0  0  0  0
   -1.6736   -9.6509   31.6941 H   0  0  0  0  0  0  0  0  0  0  0  0
   -2.1058   -8.7380   33.1567 H   0  0  0  0  0  0  0  0  0  0  0  0
   -1.7911   -4.9403   33.2261 H   0  0  0  0  0  0  0  0  0  0  0  0
   -1.8678   -6.5698   33.9662 H   0  0  0  0  0  0  0  0  0  0  0  0
   -0.1807   -3.9967   34.4999 H   0  0  0  0  0  0  0  0  0  0  0  0
    0.1547   -5.3974   35.5230 H   0  0  0  0  0  0  0  0  0  0  0  0
    2.0376   -3.7820   35.2833 H   0  0  0  0  0  0  0  0  0  0  0  0
    2.1395   -6.3428   35.3570 H   0  0  0  0  0  0  0  0  0  0  0  0
    2.6487   -5.8705   32.2531 H   0  0  0  0  0  0  0  0  0  0  0  0
    2.1699   -5.3265   29.9824 H   0  0  0  0  0  0  0  0  0  0  0  0
    3.1812   -4.0358   30.5523 H   0  0  0  0  0  0  0  0  0  0  0  0
    1.6046   -2.8058   29.4068 H   0  0  0  0  0  0  0  0  0  0  0  0
    0.3086   -3.9700   29.6963 H   0  0  0  0  0  0  0  0  0  0  0  0
    1.3498   -2.2302   31.9390 H   0  0  0  0  0  0  0  0  0  0  0  0
   -1.8420   -2.2854   28.6456 H   0  0  0  0  0  0  0  0  0  0  0  0
   -1.9066   -0.6769   26.7917 H   0  0  0  0  0  0  0  0  0  0  0  0
   -1.8380    1.6747   26.4452 H   0  0  0  0  0  0  0  0  0  0  0  0
    0.1218    2.2474   29.1808 H   0  0  0  0  0  0  0  0  0  0  0  0
    0.1390    0.6700   31.0975 H   0  0  0  0  0  0  0  0  0  0  0  0
    0.0807   -4.5037   31.9132 H   0  0  0  0  0  0  0  0  0  0  0  0
  1  2  1  0
  2  3  1  0
  2  4  1  0
  4  5  1  0
  5  6  1  0
  6  7  1  0
  7  8  1  0
  8  9  1  0
  8 10  1  0
 10 11  1  0
 10 12  1  0
 12 13  1  0
 13 14  1  0
 14 15  1  0
 15 16  1  0
 16 17  2  0
 16 18  2  0
 16 19  1  0
 19 20  2  0
 20 21  1  0
 21 22  2  0
 22 23  1  0
 22 24  1  0
 24 25  2  0
 12 26  1  0
  6 27  1  0
 27 28  2  0
 27 29  1  0
 29  2  1  0
 26  6  1  0
 25 19  1  0
  1 30  1  0
  1 31  1  0
  1 32  1  0
  3 33  1  0
  3 34  1  0
  3 35  1  0
  5 36  1  0
  5 37  1  0
  7 38  1  0
  7 39  1  0
  8 40  1  0
  9 41  1  0
 12 42  1  0
 13 43  1  0
 13 44  1  0
 14 45  1  0
 14 46  1  0
 15 47  1  0
 20 48  1  0
 21 49  1  0
 23 50  1  0
 24 51  1  0
 25 52  1  0
 26 53  1  0
M  END
>  <Energy>  (801) 
-62.193348628538303

>  <compound_id>  (801) 
2877

>  <target_id>  (801) 
1

>  <reference_id>  (801) 
165

>  <inspiration_ids>  (801) 
[187, 165]

>  <energy_score>  (801) 
-58.03404481152367

>  <distance_score>  (801) 
2.1646850375509126

>  <path>  (801) 
/opt/xchem-fragalysis-2/maxwin/BulkDock/SCRATCH/505736/C2877-P165/C2877-P165.minimised.mol

>  <scratch_subdir>  (801) 
/opt/xchem-fragalysis-2/maxwin/BulkDock/SCRATCH/505736/C2877-P165

>  <fragmenstein_runtime>  (801) 
8.757673025131226

>  <fragmenstein_outcome>  (801) 
too moved

>  <fragmenstein_mode>  (801) 
expansion

>  <fragmenstein_error>  (801) 


$$$$
C2879-P187
     RDKit          3D

 66 69  0  0  0  0  0  0  0  0999 V2000
    0.9912   -1.1504   32.7833 O   0  0  0  0  0  0  0  0  0  0  0  0
    0.1227   -2.1444   32.1912 S   0  0  0  0  0  0  0  0  0  0  0  0
   -0.6953   -3.1150   33.0670 N   0  0  0  0  0  0  0  0  0  0  0  0
   -0.3015   -3.1584   34.5452 C   0  0  0  0  0  0  0  0  0  0  0  0
    1.0131   -3.9334   34.7462 C   0  0  0  0  0  0  0  0  0  0  0  0
    1.6220   -4.0316   36.1799 C   0  0  0  0  0  0  0  0  0  0  0  0
    1.8704   -2.6899   36.6399 O   0  0  0  0  0  0  0  0  0  0  0  0
    2.9871   -4.7388   36.0413 C   0  0  0  0  0  0  0  0  0  0  0  0
    3.6037   -5.2349   37.3387 C   0  0  0  0  0  0  0  0  0  0  0  0
    2.7070   -5.9111   38.2513 N   0  0  0  0  0  0  0  0  0  0  0  0
    2.6486   -7.3641   38.1534 C   0  0  0  0  0  0  0  0  0  0  0  0
    1.7967   -7.7270   37.0024 C   0  0  0  0  0  0  0  0  0  0  0  0
    2.2198   -7.8081   35.6462 C   0  0  0  0  0  0  0  0  0  0  0  0
    1.1442   -7.6933   34.8012 C   0  0  0  0  0  0  0  0  0  0  0  0
   -0.3506   -7.8293   35.6197 S   0  0  0  0  0  0  0  0  0  0  0  0
    0.4389   -7.9287   37.1187 C   0  0  0  0  0  0  0  0  0  0  0  0
    1.4526   -5.1877   38.4632 C   0  0  0  0  0  0  0  0  0  0  0  0
    0.7097   -4.6818   37.2229 C   0  0  0  0  0  0  0  0  0  0  0  0
    1.2695   -3.1496   31.4608 N   0  0  0  0  0  0  0  0  0  0  0  0
    1.1349   -3.7783   30.1498 C   0  0  0  0  0  0  0  0  0  0  0  0
    1.6474   -5.2232   30.1412 C   0  0  0  0  0  0  0  0  0  0  0  0
    0.6378   -6.1590   30.7410 C   0  0  0  0  0  0  0  0  0  0  0  0
    0.4099   -7.3546   30.1774 N   0  0  0  0  0  0  0  0  0  0  0  0
   -0.4658   -8.1588   30.8236 C   0  0  0  0  0  0  0  0  0  0  0  0
   -1.1590   -7.7985   31.9468 C   0  0  0  0  0  0  0  0  0  0  0  0
   -0.8720   -6.5440   32.3779 C   0  0  0  0  0  0  0  0  0  0  0  0
   -1.5256   -5.9730   33.4001 O   0  0  0  0  0  0  0  0  0  0  0  0
    0.0344   -5.7436   31.8449 N   0  0  0  0  0  0  0  0  0  0  0  0
   -0.7447   -1.2923   30.8788 C   0  0  0  0  0  0  0  0  0  0  0  0
   -1.5128   -1.9907   29.9547 C   0  0  0  0  0  0  0  0  0  0  0  0
   -1.7701   -1.4195   28.7028 C   0  0  0  0  0  0  0  0  0  0  0  0
   -1.3258   -0.1392   28.4034 C   0  0  0  0  0  0  0  0  0  0  0  0
   -1.4988    0.3792   27.1562 O   0  0  0  0  0  0  0  0  0  0  0  0
   -0.6684    0.6125   29.3620 C   0  0  0  0  0  0  0  0  0  0  0  0
   -0.3713    0.0356   30.6012 C   0  0  0  0  0  0  0  0  0  0  0  0
   -0.2308   -2.1400   34.9432 H   0  0  0  0  0  0  0  0  0  0  0  0
   -1.1055   -3.6590   35.0934 H   0  0  0  0  0  0  0  0  0  0  0  0
    1.7789   -3.4649   34.1157 H   0  0  0  0  0  0  0  0  0  0  0  0
    0.8807   -4.9442   34.3521 H   0  0  0  0  0  0  0  0  0  0  0  0
    2.4094   -2.2278   35.9734 H   0  0  0  0  0  0  0  0  0  0  0  0
    3.7058   -4.0324   35.6008 H   0  0  0  0  0  0  0  0  0  0  0  0
    2.9275   -5.5414   35.3118 H   0  0  0  0  0  0  0  0  0  0  0  0
    4.4882   -5.8459   37.1183 H   0  0  0  0  0  0  0  0  0  0  0  0
    4.0030   -4.3599   37.8698 H   0  0  0  0  0  0  0  0  0  0  0  0
    2.2424   -7.7794   39.0842 H   0  0  0  0  0  0  0  0  0  0  0  0
    3.6522   -7.7943   38.0511 H   0  0  0  0  0  0  0  0  0  0  0  0
    3.2497   -7.7470   35.3191 H   0  0  0  0  0  0  0  0  0  0  0  0
    1.1627   -7.5572   33.7336 H   0  0  0  0  0  0  0  0  0  0  0  0
   -0.1147   -7.9963   38.0398 H   0  0  0  0  0  0  0  0  0  0  0  0
    0.7691   -5.7656   39.0979 H   0  0  0  0  0  0  0  0  0  0  0  0
    1.7013   -4.3069   39.0716 H   0  0  0  0  0  0  0  0  0  0  0  0
    0.1216   -5.4630   36.7628 H   0  0  0  0  0  0  0  0  0  0  0  0
   -0.0305   -3.9446   37.5642 H   0  0  0  0  0  0  0  0  0  0  0  0
    2.1333   -2.6232   31.5143 H   0  0  0  0  0  0  0  0  0  0  0  0
    1.7060   -3.1849   29.4264 H   0  0  0  0  0  0  0  0  0  0  0  0
    0.1079   -3.8058   29.7935 H   0  0  0  0  0  0  0  0  0  0  0  0
    2.5915   -5.3049   30.6898 H   0  0  0  0  0  0  0  0  0  0  0  0
    1.8483   -5.5263   29.1079 H   0  0  0  0  0  0  0  0  0  0  0  0
   -0.5794   -9.1485   30.3899 H   0  0  0  0  0  0  0  0  0  0  0  0
   -1.8728   -8.4374   32.4431 H   0  0  0  0  0  0  0  0  0  0  0  0
   -1.2758   -5.0238   33.2917 H   0  0  0  0  0  0  0  0  0  0  0  0
   -1.8356   -3.0058   30.1599 H   0  0  0  0  0  0  0  0  0  0  0  0
   -2.3097   -1.9891   27.9539 H   0  0  0  0  0  0  0  0  0  0  0  0
   -1.6990   -0.3625   26.5443 H   0  0  0  0  0  0  0  0  0  0  0  0
   -0.3367    1.6201   29.1260 H   0  0  0  0  0  0  0  0  0  0  0  0
    0.2331    0.6054   31.3041 H   0  0  0  0  0  0  0  0  0  0  0  0
  1  2  2  0
  2  3  2  0
  3  4  1  0
  4  5  1  0
  5  6  1  0
  6  7  1  0
  6  8  1  0
  8  9  1  0
  9 10  1  0
 10 11  1  0
 11 12  1  0
 12 13  1  0
 13 14  2  0
 14 15  1  0
 15 16  1  0
 10 17  1  0
 17 18  1  0
  2 19  1  0
 19 20  1  0
 20 21  1  0
 21 22  1  0
 22 23  2  0
 23 24  1  0
 24 25  2  0
 25 26  1  0
 26 27  1  0
 26 28  2  0
  2 29  1  0
 29 30  2  0
 30 31  1  0
 31 32  2  0
 32 33  1  0
 32 34  1  0
 34 35  2  0
 18  6  1  0
 28 22  1  0
 35 29  1  0
 16 12  2  0
  4 36  1  0
  4 37  1  0
  5 38  1  0
  5 39  1  0
  7 40  1  0
  8 41  1  0
  8 42  1  0
  9 43  1  0
  9 44  1  0
 11 45  1  0
 11 46  1  0
 13 47  1  0
 14 48  1  0
 16 49  1  0
 17 50  1  0
 17 51  1  0
 18 52  1  0
 18 53  1  0
 19 54  1  0
 20 55  1  0
 20 56  1  0
 21 57  1  0
 21 58  1  0
 24 59  1  0
 25 60  1  0
 27 61  1  0
 30 62  1  0
 31 63  1  0
 33 64  1  0
 34 65  1  0
 35 66  1  0
M  END
>  <Energy>  (802) 
-78.037150955811825

>  <compound_id>  (802) 
2879

>  <target_id>  (802) 
1

>  <reference_id>  (802) 
187

>  <inspiration_ids>  (802) 
[187, 167]

>  <energy_score>  (802) 
-61.51854765440664

>  <distance_score>  (802) 
2.6904971402338975

>  <path>  (802) 
/opt/xchem-fragalysis-2/maxwin/BulkDock/SCRATCH/505736/C2879-P187/C2879-P187.minimised.mol

>  <scratch_subdir>  (802) 
/opt/xchem-fragalysis-2/maxwin/BulkDock/SCRATCH/505736/C2879-P187

>  <fragmenstein_runtime>  (802) 
12.530792474746704

>  <fragmenstein_outcome>  (802) 
too moved

>  <fragmenstein_mode>  (802) 
expansion

>  <fragmenstein_error>  (802) 


$$$$
C2879-P167
     RDKit          3D

 66 69  0  0  0  0  0  0  0  0999 V2000
    1.1605   -1.3891   32.9377 O   0  0  0  0  0  0  0  0  0  0  0  0
    0.2834   -2.3657   32.3381 S   0  0  0  0  0  0  0  0  0  0  0  0
   -0.4685   -3.4188   33.1734 N   0  0  0  0  0  0  0  0  0  0  0  0
   -0.0154   -3.6347   34.6233 C   0  0  0  0  0  0  0  0  0  0  0  0
    1.1625   -4.6344   34.7342 C   0  0  0  0  0  0  0  0  0  0  0  0
    1.2830   -5.5080   36.0229 C   0  0  0  0  0  0  0  0  0  0  0  0
    1.4419   -4.6062   37.1261 O   0  0  0  0  0  0  0  0  0  0  0  0
    2.5579   -6.3958   35.9067 C   0  0  0  0  0  0  0  0  0  0  0  0
    2.4444   -7.7376   36.6335 C   0  0  0  0  0  0  0  0  0  0  0  0
    1.6870   -7.5282   37.8590 N   0  0  0  0  0  0  0  0  0  0  0  0
    1.8290   -8.6668   38.7828 C   0  0  0  0  0  0  0  0  0  0  0  0
    1.3285   -8.2891   40.1499 C   0  0  0  0  0  0  0  0  0  0  0  0
    1.9083   -7.2803   40.9911 C   0  0  0  0  0  0  0  0  0  0  0  0
    1.2537   -7.1525   42.1957 C   0  0  0  0  0  0  0  0  0  0  0  0
   -0.0563   -8.2414   42.3309 S   0  0  0  0  0  0  0  0  0  0  0  0
    0.2492   -8.8860   40.7775 C   0  0  0  0  0  0  0  0  0  0  0  0
    0.2640   -7.2822   37.5480 C   0  0  0  0  0  0  0  0  0  0  0  0
    0.0817   -6.4165   36.3033 C   0  0  0  0  0  0  0  0  0  0  0  0
    1.3501   -3.4303   31.5683 N   0  0  0  0  0  0  0  0  0  0  0  0
    1.2785   -3.8485   30.1700 C   0  0  0  0  0  0  0  0  0  0  0  0
    1.6809   -5.3186   29.9953 C   0  0  0  0  0  0  0  0  0  0  0  0
    0.6620   -6.2649   30.5779 C   0  0  0  0  0  0  0  0  0  0  0  0
    0.3672   -7.3940   29.9198 N   0  0  0  0  0  0  0  0  0  0  0  0
   -0.4465   -8.2633   30.5615 C   0  0  0  0  0  0  0  0  0  0  0  0
   -1.0017   -8.0460   31.7930 C   0  0  0  0  0  0  0  0  0  0  0  0
   -0.6503   -6.8547   32.3354 C   0  0  0  0  0  0  0  0  0  0  0  0
   -1.2150   -6.4441   33.4849 O   0  0  0  0  0  0  0  0  0  0  0  0
    0.1810   -5.9725   31.7851 N   0  0  0  0  0  0  0  0  0  0  0  0
   -0.6409   -1.4859   31.0755 C   0  0  0  0  0  0  0  0  0  0  0  0
   -1.4062   -2.1680   30.1359 C   0  0  0  0  0  0  0  0  0  0  0  0
   -1.6702   -1.5713   28.8951 C   0  0  0  0  0  0  0  0  0  0  0  0
   -1.2700   -0.2667   28.6376 C   0  0  0  0  0  0  0  0  0  0  0  0
   -1.4518    0.2852   27.4053 O   0  0  0  0  0  0  0  0  0  0  0  0
   -0.6438    0.4757   29.6261 C   0  0  0  0  0  0  0  0  0  0  0  0
   -0.3134   -0.1374   30.8411 C   0  0  0  0  0  0  0  0  0  0  0  0
    0.2427   -2.6779   35.0914 H   0  0  0  0  0  0  0  0  0  0  0  0
   -0.8764   -4.0155   35.1749 H   0  0  0  0  0  0  0  0  0  0  0  0
    2.0845   -4.0451   34.6304 H   0  0  0  0  0  0  0  0  0  0  0  0
    1.1589   -5.3247   33.8932 H   0  0  0  0  0  0  0  0  0  0  0  0
    1.6592   -5.1723   37.8963 H   0  0  0  0  0  0  0  0  0  0  0  0
    3.4177   -5.8417   36.3063 H   0  0  0  0  0  0  0  0  0  0  0  0
    2.7819   -6.6168   34.8556 H   0  0  0  0  0  0  0  0  0  0  0  0
    1.9739   -8.4934   35.9912 H   0  0  0  0  0  0  0  0  0  0  0  0
    3.4612   -8.0911   36.8445 H   0  0  0  0  0  0  0  0  0  0  0  0
    2.8886   -8.9331   38.8919 H   0  0  0  0  0  0  0  0  0  0  0  0
    1.3154   -9.5540   38.4033 H   0  0  0  0  0  0  0  0  0  0  0  0
    2.7651   -6.6790   40.7122 H   0  0  0  0  0  0  0  0  0  0  0  0
    1.4839   -6.4734   43.0044 H   0  0  0  0  0  0  0  0  0  0  0  0
   -0.3768   -9.6774   40.3825 H   0  0  0  0  0  0  0  0  0  0  0  0
   -0.2007   -6.7707   38.3994 H   0  0  0  0  0  0  0  0  0  0  0  0
   -0.2828   -8.2219   37.3967 H   0  0  0  0  0  0  0  0  0  0  0  0
   -0.0639   -7.0878   35.4519 H   0  0  0  0  0  0  0  0  0  0  0  0
   -0.8284   -5.8231   36.4236 H   0  0  0  0  0  0  0  0  0  0  0  0
    1.1284   -4.2587   32.1187 H   0  0  0  0  0  0  0  0  0  0  0  0
    1.9503   -3.2116   29.5850 H   0  0  0  0  0  0  0  0  0  0  0  0
    0.2880   -3.7628   29.7375 H   0  0  0  0  0  0  0  0  0  0  0  0
    2.6519   -5.5062   30.4665 H   0  0  0  0  0  0  0  0  0  0  0  0
    1.7995   -5.5294   28.9268 H   0  0  0  0  0  0  0  0  0  0  0  0
   -0.6113   -9.1968   30.0307 H   0  0  0  0  0  0  0  0  0  0  0  0
   -1.6747   -8.7348   32.2825 H   0  0  0  0  0  0  0  0  0  0  0  0
   -1.1598   -5.4616   33.4217 H   0  0  0  0  0  0  0  0  0  0  0  0
   -1.6974   -3.1966   30.3146 H   0  0  0  0  0  0  0  0  0  0  0  0
   -2.1793   -2.1417   28.1250 H   0  0  0  0  0  0  0  0  0  0  0  0
   -1.6550   -0.4350   26.7713 H   0  0  0  0  0  0  0  0  0  0  0  0
   -0.3462    1.5018   29.4271 H   0  0  0  0  0  0  0  0  0  0  0  0
    0.2875    0.4208   31.5568 H   0  0  0  0  0  0  0  0  0  0  0  0
  1  2  2  0
  2  3  2  0
  3  4  1  0
  4  5  1  0
  5  6  1  0
  6  7  1  0
  6  8  1  0
  8  9  1  0
  9 10  1  0
 10 11  1  0
 11 12  1  0
 12 13  1  0
 13 14  2  0
 14 15  1  0
 15 16  1  0
 10 17  1  0
 17 18  1  0
  2 19  1  0
 19 20  1  0
 20 21  1  0
 21 22  1  0
 22 23  2  0
 23 24  1  0
 24 25  2  0
 25 26  1  0
 26 27  1  0
 26 28  2  0
  2 29  1  0
 29 30  2  0
 30 31  1  0
 31 32  2  0
 32 33  1  0
 32 34  1  0
 34 35  2  0
 18  6  1  0
 28 22  1  0
 35 29  1  0
 16 12  2  0
  4 36  1  0
  4 37  1  0
  5 38  1  0
  5 39  1  0
  7 40  1  0
  8 41  1  0
  8 42  1  0
  9 43  1  0
  9 44  1  0
 11 45  1  0
 11 46  1  0
 13 47  1  0
 14 48  1  0
 16 49  1  0
 17 50  1  0
 17 51  1  0
 18 52  1  0
 18 53  1  0
 19 54  1  0
 20 55  1  0
 20 56  1  0
 21 57  1  0
 21 58  1  0
 24 59  1  0
 25 60  1  0
 27 61  1  0
 30 62  1  0
 31 63  1  0
 33 64  1  0
 34 65  1  0
 35 66  1  0
M  END
>  <Energy>  (803) 
-93.977538010013575

>  <compound_id>  (803) 
2879

>  <target_id>  (803) 
1

>  <reference_id>  (803) 
167

>  <inspiration_ids>  (803) 
[187, 167]

>  <energy_score>  (803) 
-77.45893470860547

>  <distance_score>  (803) 
2.487414486506755

>  <path>  (803) 
/opt/xchem-fragalysis-2/maxwin/BulkDock/SCRATCH/505736/C2879-P167/C2879-P167.minimised.mol

>  <scratch_subdir>  (803) 
/opt/xchem-fragalysis-2/maxwin/BulkDock/SCRATCH/505736/C2879-P167

>  <fragmenstein_runtime>  (803) 
13.914086103439331

>  <fragmenstein_outcome>  (803) 
too moved

>  <fragmenstein_mode>  (803) 
expansion

>  <fragmenstein_error>  (803) 


$$$$
C2880-P187
     RDKit          3D

 61 64  0  0  0  0  0  0  0  0999 V2000
    4.8277   -1.4501   39.0735 C   0  0  0  0  0  0  0  0  0  0  0  0
    3.7404   -2.1541   38.4589 N   0  0  0  0  0  0  0  0  0  0  0  0
    3.4010   -2.3733   36.9606 C   0  0  0  0  0  0  0  0  0  0  0  0
    3.9110   -1.9502   36.0006 O   0  0  0  0  0  0  0  0  0  0  0  0
    2.1762   -3.2930   36.9508 C   0  0  0  0  0  0  0  0  0  0  0  0
    1.6822   -3.6373   35.5362 C   0  0  0  0  0  0  0  0  0  0  0  0
    0.2717   -4.2330   35.5992 C   0  0  0  0  0  0  0  0  0  0  0  0
   -0.2491   -4.6230   34.2141 C   0  0  0  0  0  0  0  0  0  0  0  0
    0.6834   -5.5361   33.3786 C   0  0  0  0  0  0  0  0  0  0  0  0
    2.1155   -4.9441   33.4186 C   0  0  0  0  0  0  0  0  0  0  0  0
    2.6207   -4.6231   34.8278 C   0  0  0  0  0  0  0  0  0  0  0  0
    0.7211   -6.9521   34.1173 C   0  0  0  0  0  0  0  0  0  0  0  0
   -0.0514   -7.8084   33.1934 C   0  0  0  0  0  0  0  0  0  0  0  0
    0.4623   -7.8438   31.9986 N   0  0  0  0  0  0  0  0  0  0  0  0
   -0.3712   -7.0158   31.3732 N   0  0  0  0  0  0  0  0  0  0  0  0
   -1.6823   -7.3658   31.9244 N   0  0  0  0  0  0  0  0  0  0  0  0
   -1.4161   -7.8094   33.2407 N   0  0  0  0  0  0  0  0  0  0  0  0
    0.0384   -5.6148   31.8099 C   0  0  0  0  0  0  0  0  0  0  0  0
    0.9658   -5.1061   30.6706 C   0  0  0  0  0  0  0  0  0  0  0  0
    0.5237   -3.7479   30.1373 C   0  0  0  0  0  0  0  0  0  0  0  0
    0.3610   -2.8167   31.2473 N   0  0  0  0  0  0  0  0  0  0  0  0
   -1.0792   -1.9890   31.4458 S   0  0  0  0  0  0  0  0  0  0  0  0
   -0.9447   -1.2201   32.6634 O   0  0  0  0  0  0  0  0  0  0  0  0
   -2.1706   -2.9250   31.2670 O   0  0  0  0  0  0  0  0  0  0  0  0
   -1.0209   -0.8617   30.0861 C   0  0  0  0  0  0  0  0  0  0  0  0
   -1.5737   -1.2087   28.8564 C   0  0  0  0  0  0  0  0  0  0  0  0
   -1.5544   -0.2787   27.8184 C   0  0  0  0  0  0  0  0  0  0  0  0
   -0.9871    0.9744   28.0112 C   0  0  0  0  0  0  0  0  0  0  0  0
   -1.0247    1.8670   26.9822 O   0  0  0  0  0  0  0  0  0  0  0  0
   -0.4003    1.3117   29.2238 C   0  0  0  0  0  0  0  0  0  0  0  0
   -0.4280    0.3931   30.2742 C   0  0  0  0  0  0  0  0  0  0  0  0
    4.4324   -0.8327   39.8826 H   0  0  0  0  0  0  0  0  0  0  0  0
    5.3282   -0.8293   38.3273 H   0  0  0  0  0  0  0  0  0  0  0  0
    5.5301   -2.1831   39.4765 H   0  0  0  0  0  0  0  0  0  0  0  0
    3.1426   -2.7396   39.0310 H   0  0  0  0  0  0  0  0  0  0  0  0
    1.3803   -2.7698   37.4960 H   0  0  0  0  0  0  0  0  0  0  0  0
    2.4186   -4.2115   37.4989 H   0  0  0  0  0  0  0  0  0  0  0  0
    1.6353   -2.7130   34.9438 H   0  0  0  0  0  0  0  0  0  0  0  0
   -0.4193   -3.5027   36.0388 H   0  0  0  0  0  0  0  0  0  0  0  0
    0.2613   -5.1011   36.2683 H   0  0  0  0  0  0  0  0  0  0  0  0
   -0.4411   -3.6973   33.6692 H   0  0  0  0  0  0  0  0  0  0  0  0
   -1.2132   -5.1197   34.3358 H   0  0  0  0  0  0  0  0  0  0  0  0
    2.8200   -5.6389   32.9473 H   0  0  0  0  0  0  0  0  0  0  0  0
    2.1560   -4.0100   32.8506 H   0  0  0  0  0  0  0  0  0  0  0  0
    3.6282   -4.2006   34.7451 H   0  0  0  0  0  0  0  0  0  0  0  0
    2.7197   -5.5431   35.4160 H   0  0  0  0  0  0  0  0  0  0  0  0
    1.7385   -7.3457   34.1985 H   0  0  0  0  0  0  0  0  0  0  0  0
    0.2589   -6.9592   35.1070 H   0  0  0  0  0  0  0  0  0  0  0  0
   -2.2807   -6.5412   31.9698 H   0  0  0  0  0  0  0  0  0  0  0  0
   -1.7548   -8.7645   33.3930 H   0  0  0  0  0  0  0  0  0  0  0  0
   -0.8769   -5.0168   31.8041 H   0  0  0  0  0  0  0  0  0  0  0  0
    0.9445   -5.7926   29.8137 H   0  0  0  0  0  0  0  0  0  0  0  0
    2.0176   -5.0802   30.9611 H   0  0  0  0  0  0  0  0  0  0  0  0
    1.2688   -3.3529   29.4392 H   0  0  0  0  0  0  0  0  0  0  0  0
   -0.4088   -3.8771   29.5788 H   0  0  0  0  0  0  0  0  0  0  0  0
    1.1781   -2.3716   31.6627 H   0  0  0  0  0  0  0  0  0  0  0  0
   -2.0335   -2.1790   28.6894 H   0  0  0  0  0  0  0  0  0  0  0  0
   -2.0072   -0.5255   26.8621 H   0  0  0  0  0  0  0  0  0  0  0  0
   -1.1059    2.7589   27.3651 H   0  0  0  0  0  0  0  0  0  0  0  0
    0.0614    2.2847   29.3662 H   0  0  0  0  0  0  0  0  0  0  0  0
    0.0115    0.6648   31.2313 H   0  0  0  0  0  0  0  0  0  0  0  0
  1  2  1  0
  2  3  1  0
  3  4  2  0
  3  5  1  0
  5  6  1  0
  6  7  1  0
  7  8  1  0
  8  9  1  0
  9 10  1  0
 10 11  1  0
  9 12  1  0
 12 13  1  0
 13 14  2  0
 14 15  1  0
 15 16  1  0
 16 17  1  0
 15 18  1  0
 18 19  1  0
 19 20  1  0
 20 21  1  0
 21 22  1  0
 22 23  2  0
 22 24  2  0
 22 25  1  0
 25 26  2  0
 26 27  1  0
 27 28  2  0
 28 29  1  0
 28 30  1  0
 30 31  2  0
 11  6  1  0
 17 13  1  0
 31 25  1  0
 18  9  1  0
  1 32  1  0
  1 33  1  0
  1 34  1  0
  2 35  1  0
  5 36  1  0
  5 37  1  0
  6 38  1  0
  7 39  1  0
  7 40  1  0
  8 41  1  0
  8 42  1  0
 10 43  1  0
 10 44  1  0
 11 45  1  0
 11 46  1  0
 12 47  1  0
 12 48  1  0
 16 49  1  0
 17 50  1  0
 18 51  1  0
 19 52  1  0
 19 53  1  0
 20 54  1  0
 20 55  1  0
 21 56  1  0
 26 57  1  0
 27 58  1  0
 29 59  1  0
 30 60  1  0
 31 61  1  0
M  END
>  <Energy>  (804) 
75.405363846921233

>  <compound_id>  (804) 
2880

>  <target_id>  (804) 
1

>  <reference_id>  (804) 
187

>  <inspiration_ids>  (804) 
[187, 168]

>  <energy_score>  (804) 
-194.49946546382898

>  <distance_score>  (804) 
1.0230499607348267

>  <path>  (804) 
/opt/xchem-fragalysis-2/maxwin/BulkDock/SCRATCH/505736/C2880-P187/C2880-P187.minimised.mol

>  <scratch_subdir>  (804) 
/opt/xchem-fragalysis-2/maxwin/BulkDock/SCRATCH/505736/C2880-P187

>  <fragmenstein_runtime>  (804) 
24.675760746002197

>  <fragmenstein_outcome>  (804) 
too moved

>  <fragmenstein_mode>  (804) 
expansion

>  <fragmenstein_error>  (804) 


$$$$
C2880-P168
     RDKit          3D

 61 64  0  0  0  0  0  0  0  0999 V2000
    3.4258   -0.3942   39.2025 C   0  0  0  0  0  0  0  0  0  0  0  0
    3.0290   -1.5913   38.5213 N   0  0  0  0  0  0  0  0  0  0  0  0
    3.1855   -2.0023   37.0333 C   0  0  0  0  0  0  0  0  0  0  0  0
    3.5913   -1.3987   36.1212 O   0  0  0  0  0  0  0  0  0  0  0  0
    2.6615   -3.4396   36.9478 C   0  0  0  0  0  0  0  0  0  0  0  0
    2.6874   -4.0059   35.5172 C   0  0  0  0  0  0  0  0  0  0  0  0
    1.5996   -3.3796   34.6249 C   0  0  0  0  0  0  0  0  0  0  0  0
    0.3566   -4.2590   34.5087 C   0  0  0  0  0  0  0  0  0  0  0  0
    0.6329   -5.6470   33.8744 C   0  0  0  0  0  0  0  0  0  0  0  0
    2.0966   -6.0959   34.2119 C   0  0  0  0  0  0  0  0  0  0  0  0
    2.5770   -5.5377   35.5528 C   0  0  0  0  0  0  0  0  0  0  0  0
   -0.3565   -6.6931   34.5912 C   0  0  0  0  0  0  0  0  0  0  0  0
   -0.6492   -7.7006   33.5228 C   0  0  0  0  0  0  0  0  0  0  0  0
    0.3584   -7.8838   32.7218 N   0  0  0  0  0  0  0  0  0  0  0  0
    0.0345   -7.0404   31.7251 N   0  0  0  0  0  0  0  0  0  0  0  0
   -1.4218   -7.2472   31.5789 N   0  0  0  0  0  0  0  0  0  0  0  0
   -1.8470   -7.7027   32.8654 N   0  0  0  0  0  0  0  0  0  0  0  0
    0.3034   -5.6315   32.2482 C   0  0  0  0  0  0  0  0  0  0  0  0
    1.3768   -5.0276   31.3079 C   0  0  0  0  0  0  0  0  0  0  0  0
    0.8195   -3.8554   30.5052 C   0  0  0  0  0  0  0  0  0  0  0  0
    0.5039   -2.8099   31.4676 N   0  0  0  0  0  0  0  0  0  0  0  0
   -0.9633   -2.0313   31.4504 S   0  0  0  0  0  0  0  0  0  0  0  0
   -1.0343   -1.2493   32.6645 O   0  0  0  0  0  0  0  0  0  0  0  0
   -1.9874   -3.0000   31.1196 O   0  0  0  0  0  0  0  0  0  0  0  0
   -0.7069   -0.9079   30.1110 C   0  0  0  0  0  0  0  0  0  0  0  0
   -1.0875   -1.2448   28.8183 C   0  0  0  0  0  0  0  0  0  0  0  0
   -1.0417   -0.2644   27.8304 C   0  0  0  0  0  0  0  0  0  0  0  0
   -0.5317    0.9964   28.1066 C   0  0  0  0  0  0  0  0  0  0  0  0
   -0.5265    1.9239   27.1094 O   0  0  0  0  0  0  0  0  0  0  0  0
   -0.0436    1.2991   29.3684 C   0  0  0  0  0  0  0  0  0  0  0  0
   -0.1626    0.3530   30.3874 C   0  0  0  0  0  0  0  0  0  0  0  0
    4.1184   -0.6632   40.0029 H   0  0  0  0  0  0  0  0  0  0  0  0
    2.5359    0.0749   39.6275 H   0  0  0  0  0  0  0  0  0  0  0  0
    3.9097    0.2850   38.4975 H   0  0  0  0  0  0  0  0  0  0  0  0
    2.5649   -2.3342   39.0310 H   0  0  0  0  0  0  0  0  0  0  0  0
    1.6408   -3.4730   37.3468 H   0  0  0  0  0  0  0  0  0  0  0  0
    3.3039   -4.0515   37.5937 H   0  0  0  0  0  0  0  0  0  0  0  0
    3.6583   -3.7538   35.0683 H   0  0  0  0  0  0  0  0  0  0  0  0
    2.0314   -3.2216   33.6335 H   0  0  0  0  0  0  0  0  0  0  0  0
    1.3095   -2.3873   34.9879 H   0  0  0  0  0  0  0  0  0  0  0  0
   -0.4262   -3.7331   33.9545 H   0  0  0  0  0  0  0  0  0  0  0  0
   -0.0483   -4.3833   35.5225 H   0  0  0  0  0  0  0  0  0  0  0  0
    2.1716   -7.1857   34.2658 H   0  0  0  0  0  0  0  0  0  0  0  0
    2.8080   -5.7866   33.4436 H   0  0  0  0  0  0  0  0  0  0  0  0
    3.5574   -5.9643   35.7979 H   0  0  0  0  0  0  0  0  0  0  0  0
    1.8951   -5.8584   36.3501 H   0  0  0  0  0  0  0  0  0  0  0  0
    0.1071   -7.1845   35.4513 H   0  0  0  0  0  0  0  0  0  0  0  0
   -1.2911   -6.2227   34.9093 H   0  0  0  0  0  0  0  0  0  0  0  0
   -1.8693   -6.3484   31.4171 H   0  0  0  0  0  0  0  0  0  0  0  0
   -2.1938   -8.6608   32.7837 H   0  0  0  0  0  0  0  0  0  0  0  0
   -0.6190   -5.0477   32.1539 H   0  0  0  0  0  0  0  0  0  0  0  0
    1.7509   -5.7743   30.5974 H   0  0  0  0  0  0  0  0  0  0  0  0
    2.2501   -4.6770   31.8622 H   0  0  0  0  0  0  0  0  0  0  0  0
    1.5741   -3.4810   29.8062 H   0  0  0  0  0  0  0  0  0  0  0  0
   -0.0509   -4.1733   29.9237 H   0  0  0  0  0  0  0  0  0  0  0  0
    1.2639   -2.2788   31.8915 H   0  0  0  0  0  0  0  0  0  0  0  0
   -1.4856   -2.2270   28.5745 H   0  0  0  0  0  0  0  0  0  0  0  0
   -1.4473   -0.4713   26.8470 H   0  0  0  0  0  0  0  0  0  0  0  0
   -0.5867    2.8081   27.5143 H   0  0  0  0  0  0  0  0  0  0  0  0
    0.3868    2.2743   29.5790 H   0  0  0  0  0  0  0  0  0  0  0  0
    0.1624    0.6118   31.3930 H   0  0  0  0  0  0  0  0  0  0  0  0
  1  2  1  0
  2  3  1  0
  3  4  2  0
  3  5  1  0
  5  6  1  0
  6  7  1  0
  7  8  1  0
  8  9  1  0
  9 10  1  0
 10 11  1  0
  9 12  1  0
 12 13  1  0
 13 14  2  0
 14 15  1  0
 15 16  1  0
 16 17  1  0
 15 18  1  0
 18 19  1  0
 19 20  1  0
 20 21  1  0
 21 22  1  0
 22 23  2  0
 22 24  2  0
 22 25  1  0
 25 26  2  0
 26 27  1  0
 27 28  2  0
 28 29  1  0
 28 30  1  0
 30 31  2  0
 11  6  1  0
 17 13  1  0
 31 25  1  0
 18  9  1  0
  1 32  1  0
  1 33  1  0
  1 34  1  0
  2 35  1  0
  5 36  1  0
  5 37  1  0
  6 38  1  0
  7 39  1  0
  7 40  1  0
  8 41  1  0
  8 42  1  0
 10 43  1  0
 10 44  1  0
 11 45  1  0
 11 46  1  0
 12 47  1  0
 12 48  1  0
 16 49  1  0
 17 50  1  0
 18 51  1  0
 19 52  1  0
 19 53  1  0
 20 54  1  0
 20 55  1  0
 21 56  1  0
 26 57  1  0
 27 58  1  0
 29 59  1  0
 30 60  1  0
 31 61  1  0
M  END
>  <Energy>  (805) 
83.393279666173399

>  <compound_id>  (805) 
2880

>  <target_id>  (805) 
1

>  <reference_id>  (805) 
168

>  <inspiration_ids>  (805) 
[187, 168]

>  <energy_score>  (805) 
-186.51154964457578

>  <distance_score>  (805) 
1.1006458837757298

>  <path>  (805) 
/opt/xchem-fragalysis-2/maxwin/BulkDock/SCRATCH/505736/C2880-P168/C2880-P168.minimised.mol

>  <scratch_subdir>  (805) 
/opt/xchem-fragalysis-2/maxwin/BulkDock/SCRATCH/505736/C2880-P168

>  <fragmenstein_runtime>  (805) 
26.09801435470581

>  <fragmenstein_outcome>  (805) 
too moved

>  <fragmenstein_mode>  (805) 
expansion

>  <fragmenstein_error>  (805) 


$$$$
C2882-P187
     RDKit          3D

 42 44  0  0  0  0  0  0  0  0999 V2000
    2.0359   -4.0487   28.8869 N   0  0  0  0  0  0  0  0  0  0  0  0
    1.2595   -4.4251   30.0537 C   0  0  0  0  0  0  0  0  0  0  0  0
    1.5015   -5.8884   30.2993 C   0  0  0  0  0  0  0  0  0  0  0  0
    0.7051   -6.4004   31.4859 C   0  0  0  0  0  0  0  0  0  0  0  0
   -0.6806   -6.6054   31.1396 N   0  0  0  0  0  0  0  0  0  0  0  0
   -1.2954   -7.4747   32.1202 C   0  0  0  0  0  0  0  0  0  0  0  0
   -1.3380   -8.7845   31.6126 O   0  0  0  0  0  0  0  0  0  0  0  0
   -0.6867   -7.3694   33.5182 C   0  0  0  0  0  0  0  0  0  0  0  0
   -0.1473   -5.9574   33.7353 C   0  0  0  0  0  0  0  0  0  0  0  0
    0.7871   -5.5703   32.6667 N   0  0  0  0  0  0  0  0  0  0  0  0
    0.7865   -4.1300   32.4217 C   0  0  0  0  0  0  0  0  0  0  0  0
    1.6505   -3.7696   31.2984 N   0  0  0  0  0  0  0  0  0  0  0  0
    2.2555   -2.2019   31.2573 S   0  0  0  0  0  0  0  0  0  0  0  0
    3.5232   -2.2983   30.5604 O   0  0  0  0  0  0  0  0  0  0  0  0
    2.1640   -1.6069   32.5726 O   0  0  0  0  0  0  0  0  0  0  0  0
    1.1072   -1.3610   30.2045 C   0  0  0  0  0  0  0  0  0  0  0  0
    1.5696   -0.8068   29.0095 C   0  0  0  0  0  0  0  0  0  0  0  0
    0.6463   -0.3509   28.0791 C   0  0  0  0  0  0  0  0  0  0  0  0
   -0.7117   -0.4886   28.3344 C   0  0  0  0  0  0  0  0  0  0  0  0
   -1.6270   -0.1472   27.3893 O   0  0  0  0  0  0  0  0  0  0  0  0
   -1.1713   -0.9783   29.5470 C   0  0  0  0  0  0  0  0  0  0  0  0
   -0.2572   -1.4060   30.5004 C   0  0  0  0  0  0  0  0  0  0  0  0
    1.9767   -4.7640   28.1696 H   0  0  0  0  0  0  0  0  0  0  0  0
    3.0181   -3.9659   29.1610 H   0  0  0  0  0  0  0  0  0  0  0  0
    0.2024   -4.2400   29.8337 H   0  0  0  0  0  0  0  0  0  0  0  0
    2.5673   -6.0049   30.5113 H   0  0  0  0  0  0  0  0  0  0  0  0
    1.2928   -6.4975   29.4157 H   0  0  0  0  0  0  0  0  0  0  0  0
    1.1404   -7.3686   31.7216 H   0  0  0  0  0  0  0  0  0  0  0  0
   -1.1229   -5.6969   31.2035 H   0  0  0  0  0  0  0  0  0  0  0  0
   -2.3254   -7.1848   32.1852 H   0  0  0  0  0  0  0  0  0  0  0  0
   -1.9210   -9.2851   32.2118 H   0  0  0  0  0  0  0  0  0  0  0  0
   -1.4375   -7.6144   34.2781 H   0  0  0  0  0  0  0  0  0  0  0  0
    0.1256   -8.0822   33.6458 H   0  0  0  0  0  0  0  0  0  0  0  0
   -1.0008   -5.2701   33.7765 H   0  0  0  0  0  0  0  0  0  0  0  0
    0.3626   -5.8958   34.7030 H   0  0  0  0  0  0  0  0  0  0  0  0
   -0.2331   -3.7821   32.2251 H   0  0  0  0  0  0  0  0  0  0  0  0
    1.1338   -3.6493   33.3416 H   0  0  0  0  0  0  0  0  0  0  0  0
    2.6309   -0.7670   28.7788 H   0  0  0  0  0  0  0  0  0  0  0  0
    0.9947    0.0896   27.1554 H   0  0  0  0  0  0  0  0  0  0  0  0
   -1.4679   -0.7350   26.6166 H   0  0  0  0  0  0  0  0  0  0  0  0
   -2.2363   -1.0249   29.7385 H   0  0  0  0  0  0  0  0  0  0  0  0
   -0.6169   -1.7790   31.4512 H   0  0  0  0  0  0  0  0  0  0  0  0
  1  2  1  0
  2  3  1  0
  3  4  1  0
  4  5  1  0
  5  6  1  0
  6  7  1  0
  6  8  1  0
  8  9  1  0
  9 10  1  0
 10 11  1  0
 11 12  1  0
 12 13  1  0
 13 14  2  0
 13 15  2  0
 13 16  1  0
 16 17  2  0
 17 18  1  0
 18 19  2  0
 19 20  1  0
 19 21  1  0
 21 22  2  0
 12  2  1  0
 22 16  1  0
 10  4  1  0
  1 23  1  0
  1 24  1  0
  2 25  1  0
  3 26  1  0
  3 27  1  0
  4 28  1  0
  5 29  1  0
  6 30  1  0
  7 31  1  0
  8 32  1  0
  8 33  1  0
  9 34  1  0
  9 35  1  0
 11 36  1  0
 11 37  1  0
 17 38  1  0
 18 39  1  0
 20 40  1  0
 21 41  1  0
 22 42  1  0
M  END
>  <Energy>  (806) 
-225.13377663921682

>  <compound_id>  (806) 
2882

>  <target_id>  (806) 
1

>  <reference_id>  (806) 
187

>  <inspiration_ids>  (806) 
[187, 180]

>  <energy_score>  (806) 
-38.09639765840399

>  <distance_score>  (806) 
1.2637454781549364

>  <path>  (806) 
/opt/xchem-fragalysis-2/maxwin/BulkDock/SCRATCH/505736/C2882-P187/C2882-P187.minimised.mol

>  <scratch_subdir>  (806) 
/opt/xchem-fragalysis-2/maxwin/BulkDock/SCRATCH/505736/C2882-P187

>  <fragmenstein_runtime>  (806) 
3.828418016433716

>  <fragmenstein_outcome>  (806) 
too moved

>  <fragmenstein_mode>  (806) 
expansion

>  <fragmenstein_error>  (806) 


$$$$
C2882-P180
     RDKit          3D

 42 44  0  0  0  0  0  0  0  0999 V2000
    2.2348   -4.1643   28.8879 N   0  0  0  0  0  0  0  0  0  0  0  0
    1.4197   -4.5012   30.0401 C   0  0  0  0  0  0  0  0  0  0  0  0
    1.6437   -5.9592   30.3396 C   0  0  0  0  0  0  0  0  0  0  0  0
    0.7839   -6.4337   31.4995 C   0  0  0  0  0  0  0  0  0  0  0  0
   -0.5802   -6.6563   31.0823 N   0  0  0  0  0  0  0  0  0  0  0  0
   -1.2751   -7.4438   32.0791 C   0  0  0  0  0  0  0  0  0  0  0  0
   -1.3843   -8.7708   31.6298 O   0  0  0  0  0  0  0  0  0  0  0  0
   -0.7188   -7.3168   33.4957 C   0  0  0  0  0  0  0  0  0  0  0  0
   -0.1793   -5.9031   33.6908 C   0  0  0  0  0  0  0  0  0  0  0  0
    0.8043   -5.5598   32.6528 N   0  0  0  0  0  0  0  0  0  0  0  0
    0.8374   -4.1279   32.3620 C   0  0  0  0  0  0  0  0  0  0  0  0
    1.7759   -3.8236   31.2828 N   0  0  0  0  0  0  0  0  0  0  0  0
    2.4536   -2.2885   31.2403 S   0  0  0  0  0  0  0  0  0  0  0  0
    3.7196   -2.4366   30.5508 O   0  0  0  0  0  0  0  0  0  0  0  0
    2.3813   -1.6853   32.5533 O   0  0  0  0  0  0  0  0  0  0  0  0
    1.3437   -1.4133   30.1797 C   0  0  0  0  0  0  0  0  0  0  0  0
    1.7865   -0.9993   28.9221 C   0  0  0  0  0  0  0  0  0  0  0  0
    0.8610   -0.5171   28.0075 C   0  0  0  0  0  0  0  0  0  0  0  0
   -0.4816   -0.4670   28.3516 C   0  0  0  0  0  0  0  0  0  0  0  0
   -1.4151   -0.0970   27.4361 O   0  0  0  0  0  0  0  0  0  0  0  0
   -0.9038   -0.7886   29.6329 C   0  0  0  0  0  0  0  0  0  0  0  0
    0.0102   -1.2707   30.5592 C   0  0  0  0  0  0  0  0  0  0  0  0
    2.1868   -4.8948   28.1847 H   0  0  0  0  0  0  0  0  0  0  0  0
    3.2101   -4.0914   29.1891 H   0  0  0  0  0  0  0  0  0  0  0  0
    0.3729   -4.3078   29.7802 H   0  0  0  0  0  0  0  0  0  0  0  0
    2.6979   -6.0674   30.6220 H   0  0  0  0  0  0  0  0  0  0  0  0
    1.4783   -6.5922   29.4612 H   0  0  0  0  0  0  0  0  0  0  0  0
    1.2106   -7.3919   31.7888 H   0  0  0  0  0  0  0  0  0  0  0  0
   -1.0157   -5.7434   31.0397 H   0  0  0  0  0  0  0  0  0  0  0  0
   -2.2864   -7.0886   32.0957 H   0  0  0  0  0  0  0  0  0  0  0  0
   -2.0079   -9.2035   32.2419 H   0  0  0  0  0  0  0  0  0  0  0  0
   -1.5016   -7.5351   34.2313 H   0  0  0  0  0  0  0  0  0  0  0  0
    0.0766   -8.0394   33.6753 H   0  0  0  0  0  0  0  0  0  0  0  0
   -1.0295   -5.2086   33.6710 H   0  0  0  0  0  0  0  0  0  0  0  0
    0.2878   -5.8130   34.6776 H   0  0  0  0  0  0  0  0  0  0  0  0
   -0.1624   -3.7719   32.0871 H   0  0  0  0  0  0  0  0  0  0  0  0
    1.1319   -3.6178   33.2843 H   0  0  0  0  0  0  0  0  0  0  0  0
    2.8293   -1.0972   28.6314 H   0  0  0  0  0  0  0  0  0  0  0  0
    1.1986   -0.1961   27.0330 H   0  0  0  0  0  0  0  0  0  0  0  0
   -1.3356   -0.7106   26.6751 H   0  0  0  0  0  0  0  0  0  0  0  0
   -1.9407   -0.6543   29.9093 H   0  0  0  0  0  0  0  0  0  0  0  0
   -0.3228   -1.5287   31.5586 H   0  0  0  0  0  0  0  0  0  0  0  0
  1  2  1  0
  2  3  1  0
  3  4  1  0
  4  5  1  0
  5  6  1  0
  6  7  1  0
  6  8  1  0
  8  9  1  0
  9 10  1  0
 10 11  1  0
 11 12  1  0
 12 13  1  0
 13 14  2  0
 13 15  2  0
 13 16  1  0
 16 17  2  0
 17 18  1  0
 18 19  2  0
 19 20  1  0
 19 21  1  0
 21 22  2  0
 12  2  1  0
 22 16  1  0
 10  4  1  0
  1 23  1  0
  1 24  1  0
  2 25  1  0
  3 26  1  0
  3 27  1  0
  4 28  1  0
  5 29  1  0
  6 30  1  0
  7 31  1  0
  8 32  1  0
  8 33  1  0
  9 34  1  0
  9 35  1  0
 11 36  1  0
 11 37  1  0
 17 38  1  0
 18 39  1  0
 20 40  1  0
 21 41  1  0
 22 42  1  0
M  END
>  <Energy>  (807) 
-226.47646967446497

>  <compound_id>  (807) 
2882

>  <target_id>  (807) 
1

>  <reference_id>  (807) 
180

>  <inspiration_ids>  (807) 
[187, 180]

>  <energy_score>  (807) 
-39.43909069365268

>  <distance_score>  (807) 
1.2734536317514087

>  <path>  (807) 
/opt/xchem-fragalysis-2/maxwin/BulkDock/SCRATCH/505736/C2882-P180/C2882-P180.minimised.mol

>  <scratch_subdir>  (807) 
/opt/xchem-fragalysis-2/maxwin/BulkDock/SCRATCH/505736/C2882-P180

>  <fragmenstein_runtime>  (807) 
3.8554036617279053

>  <fragmenstein_outcome>  (807) 
too moved

>  <fragmenstein_mode>  (807) 
expansion

>  <fragmenstein_error>  (807) 


$$$$
C2883-P187
     RDKit          3D

 60 63  0  0  0  0  0  0  0  0999 V2000
   -1.4720   -7.9608   32.1546 C   0  0  0  0  0  0  0  0  0  0  0  0
   -1.1211   -6.6838   32.6717 O   0  0  0  0  0  0  0  0  0  0  0  0
   -0.4125   -6.7603   33.9210 C   0  0  0  0  0  0  0  0  0  0  0  0
    1.0040   -7.2284   33.6464 C   0  0  0  0  0  0  0  0  0  0  0  0
    2.1054   -6.1963   33.8112 C   0  0  0  0  0  0  0  0  0  0  0  0
    1.7583   -4.7951   33.2916 C   0  0  0  0  0  0  0  0  0  0  0  0
    2.7350   -3.8497   33.9885 C   0  0  0  0  0  0  0  0  0  0  0  0
    3.8780   -3.5227   33.3841 C   0  0  0  0  0  0  0  0  0  0  0  0
    4.8629   -2.6894   33.8579 N   0  0  0  0  0  0  0  0  0  0  0  0
    5.6886   -2.4329   32.6834 C   0  0  0  0  0  0  0  0  0  0  0  0
    5.2730   -3.2979   31.5539 N   0  0  0  0  0  0  0  0  0  0  0  0
    4.1536   -3.9781   32.1025 N   0  0  0  0  0  0  0  0  0  0  0  0
    3.2240   -4.4120   31.2344 N   0  0  0  0  0  0  0  0  0  0  0  0
    2.0690   -4.7528   31.7437 C   0  0  0  0  0  0  0  0  0  0  0  0
    1.0060   -5.0640   30.7105 C   0  0  0  0  0  0  0  0  0  0  0  0
    0.5646   -3.7591   30.0471 C   0  0  0  0  0  0  0  0  0  0  0  0
    0.3527   -2.7472   31.0801 N   0  0  0  0  0  0  0  0  0  0  0  0
   -1.1094   -1.9950   31.3046 S   0  0  0  0  0  0  0  0  0  0  0  0
   -0.9886   -1.2241   32.5234 O   0  0  0  0  0  0  0  0  0  0  0  0
   -2.1592   -2.9783   31.1449 O   0  0  0  0  0  0  0  0  0  0  0  0
   -1.1065   -0.8648   29.9482 C   0  0  0  0  0  0  0  0  0  0  0  0
   -1.6409   -1.2355   28.7205 C   0  0  0  0  0  0  0  0  0  0  0  0
   -1.6647   -0.3046   27.6828 C   0  0  0  0  0  0  0  0  0  0  0  0
   -1.1547    0.9723   27.8676 C   0  0  0  0  0  0  0  0  0  0  0  0
   -1.2441    1.8650   26.8433 O   0  0  0  0  0  0  0  0  0  0  0  0
   -0.5804    1.3301   29.0764 C   0  0  0  0  0  0  0  0  0  0  0  0
   -0.5640    0.4128   30.1289 C   0  0  0  0  0  0  0  0  0  0  0  0
    0.3230   -4.3858   33.6955 C   0  0  0  0  0  0  0  0  0  0  0  0
   -0.3594   -5.3966   34.6254 C   0  0  0  0  0  0  0  0  0  0  0  0
    0.3696   -5.4417   35.8558 O   0  0  0  0  0  0  0  0  0  0  0  0
   -0.2673   -6.1721   36.8910 C   0  0  0  0  0  0  0  0  0  0  0  0
   -2.1451   -7.7932   31.3172 H   0  0  0  0  0  0  0  0  0  0  0  0
   -0.6050   -8.5030   31.7774 H   0  0  0  0  0  0  0  0  0  0  0  0
   -1.9968   -8.5467   32.9083 H   0  0  0  0  0  0  0  0  0  0  0  0
   -0.9276   -7.4859   34.5606 H   0  0  0  0  0  0  0  0  0  0  0  0
    1.2446   -8.0276   34.3491 H   0  0  0  0  0  0  0  0  0  0  0  0
    1.0694   -7.5979   32.6272 H   0  0  0  0  0  0  0  0  0  0  0  0
    3.0041   -6.5636   33.3160 H   0  0  0  0  0  0  0  0  0  0  0  0
    2.3937   -6.1645   34.8714 H   0  0  0  0  0  0  0  0  0  0  0  0
    2.5234   -3.5083   34.9968 H   0  0  0  0  0  0  0  0  0  0  0  0
    4.4858   -1.8678   34.3165 H   0  0  0  0  0  0  0  0  0  0  0  0
    6.7425   -2.6082   32.9266 H   0  0  0  0  0  0  0  0  0  0  0  0
    5.5859   -1.3842   32.3815 H   0  0  0  0  0  0  0  0  0  0  0  0
    5.9960   -4.0010   31.4247 H   0  0  0  0  0  0  0  0  0  0  0  0
    0.1582   -5.5662   31.1595 H   0  0  0  0  0  0  0  0  0  0  0  0
    1.4198   -5.7449   29.9586 H   0  0  0  0  0  0  0  0  0  0  0  0
    1.3365   -3.3930   29.3610 H   0  0  0  0  0  0  0  0  0  0  0  0
   -0.3375   -3.9408   29.4558 H   0  0  0  0  0  0  0  0  0  0  0  0
    1.1676   -2.2592   31.4563 H   0  0  0  0  0  0  0  0  0  0  0  0
   -2.0569   -2.2246   28.5566 H   0  0  0  0  0  0  0  0  0  0  0  0
   -2.1119   -0.5701   26.7301 H   0  0  0  0  0  0  0  0  0  0  0  0
   -1.3864    2.7477   27.2312 H   0  0  0  0  0  0  0  0  0  0  0  0
   -0.1579    2.3215   29.2159 H   0  0  0  0  0  0  0  0  0  0  0  0
   -0.1297    0.7038   31.0825 H   0  0  0  0  0  0  0  0  0  0  0  0
    0.3215   -3.4046   34.1888 H   0  0  0  0  0  0  0  0  0  0  0  0
   -0.3292   -4.2798   32.8323 H   0  0  0  0  0  0  0  0  0  0  0  0
   -1.3606   -5.0329   34.8379 H   0  0  0  0  0  0  0  0  0  0  0  0
   -0.3134   -7.2376   36.6544 H   0  0  0  0  0  0  0  0  0  0  0  0
   -1.2667   -5.7722   37.0751 H   0  0  0  0  0  0  0  0  0  0  0  0
    0.3234   -6.0548   37.8037 H   0  0  0  0  0  0  0  0  0  0  0  0
  1  2  1  0
  2  3  1  0
  3  4  1  0
  4  5  1  0
  5  6  1  0
  6  7  1  0
  7  8  2  0
  8  9  1  0
  9 10  1  0
 10 11  1  0
 11 12  1  0
 12 13  1  0
 13 14  2  0
 14 15  1  0
 15 16  1  0
 16 17  1  0
 17 18  1  0
 18 19  2  0
 18 20  2  0
 18 21  1  0
 21 22  2  0
 22 23  1  0
 23 24  2  0
 24 25  1  0
 24 26  1  0
 26 27  2  0
  6 28  1  0
 28 29  1  0
 29 30  1  0
 30 31  1  0
 29  3  1  0
 14  6  1  0
 27 21  1  0
 12  8  1  0
  1 32  1  0
  1 33  1  0
  1 34  1  0
  3 35  1  0
  4 36  1  0
  4 37  1  0
  5 38  1  0
  5 39  1  0
  7 40  1  0
  9 41  1  0
 10 42  1  0
 10 43  1  0
 11 44  1  0
 15 45  1  0
 15 46  1  0
 16 47  1  0
 16 48  1  0
 17 49  1  0
 22 50  1  0
 23 51  1  0
 25 52  1  0
 26 53  1  0
 27 54  1  0
 28 55  1  0
 28 56  1  0
 29 57  1  0
 31 58  1  0
 31 59  1  0
 31 60  1  0
M  END
>  <Energy>  (808) 
-9.5862893136342642

>  <compound_id>  (808) 
2883

>  <target_id>  (808) 
1

>  <reference_id>  (808) 
187

>  <inspiration_ids>  (808) 
[187, 183]

>  <energy_score>  (808) 
-101.68119767054068

>  <distance_score>  (808) 
1.233011422817161

>  <path>  (808) 
/opt/xchem-fragalysis-2/maxwin/BulkDock/SCRATCH/505736/C2883-P187/C2883-P187.minimised.mol

>  <scratch_subdir>  (808) 
/opt/xchem-fragalysis-2/maxwin/BulkDock/SCRATCH/505736/C2883-P187

>  <fragmenstein_runtime>  (808) 
7.5090508460998535

>  <fragmenstein_outcome>  (808) 
too moved

>  <fragmenstein_mode>  (808) 
expansion

>  <fragmenstein_error>  (808) 


$$$$
C2883-P183
     RDKit          3D

 60 63  0  0  0  0  0  0  0  0999 V2000
   -1.4189   -7.9493   32.0866 C   0  0  0  0  0  0  0  0  0  0  0  0
   -1.1095   -6.6829   32.6503 O   0  0  0  0  0  0  0  0  0  0  0  0
   -0.3991   -6.7674   33.8959 C   0  0  0  0  0  0  0  0  0  0  0  0
    1.0366   -7.1750   33.6195 C   0  0  0  0  0  0  0  0  0  0  0  0
    2.0977   -6.1114   33.8382 C   0  0  0  0  0  0  0  0  0  0  0  0
    1.7101   -4.7227   33.3154 C   0  0  0  0  0  0  0  0  0  0  0  0
    2.6559   -3.7371   34.0030 C   0  0  0  0  0  0  0  0  0  0  0  0
    3.7980   -3.4063   33.3986 C   0  0  0  0  0  0  0  0  0  0  0  0
    4.7845   -2.5669   33.8584 N   0  0  0  0  0  0  0  0  0  0  0  0
    5.8367   -2.6979   32.8543 C   0  0  0  0  0  0  0  0  0  0  0  0
    5.3150   -3.3966   31.6542 N   0  0  0  0  0  0  0  0  0  0  0  0
    4.1143   -3.9539   32.1615 N   0  0  0  0  0  0  0  0  0  0  0  0
    3.1932   -4.3522   31.2682 N   0  0  0  0  0  0  0  0  0  0  0  0
    2.0282   -4.6813   31.7652 C   0  0  0  0  0  0  0  0  0  0  0  0
    0.9710   -4.9844   30.7254 C   0  0  0  0  0  0  0  0  0  0  0  0
    0.5316   -3.6763   30.0710 C   0  0  0  0  0  0  0  0  0  0  0  0
    0.2860   -2.6801   31.1111 N   0  0  0  0  0  0  0  0  0  0  0  0
   -1.1951   -1.9640   31.3311 S   0  0  0  0  0  0  0  0  0  0  0  0
   -1.0896   -1.1735   32.5382 O   0  0  0  0  0  0  0  0  0  0  0  0
   -2.2188   -2.9781   31.1902 O   0  0  0  0  0  0  0  0  0  0  0  0
   -1.2320   -0.8552   29.9578 C   0  0  0  0  0  0  0  0  0  0  0  0
   -1.7969   -1.2524   28.7528 C   0  0  0  0  0  0  0  0  0  0  0  0
   -1.8265   -0.3574   27.6843 C   0  0  0  0  0  0  0  0  0  0  0  0
   -1.3146    0.9247   27.8273 C   0  0  0  0  0  0  0  0  0  0  0  0
   -1.4151    1.7873   26.7774 O   0  0  0  0  0  0  0  0  0  0  0  0
   -0.7279    1.3171   29.0213 C   0  0  0  0  0  0  0  0  0  0  0  0
   -0.6867    0.4254   30.0960 C   0  0  0  0  0  0  0  0  0  0  0  0
    0.2606   -4.3638   33.7194 C   0  0  0  0  0  0  0  0  0  0  0  0
   -0.4008   -5.4153   34.6225 C   0  0  0  0  0  0  0  0  0  0  0  0
    0.3076   -5.4614   35.8648 O   0  0  0  0  0  0  0  0  0  0  0  0
   -0.3400   -6.2069   36.8829 C   0  0  0  0  0  0  0  0  0  0  0  0
   -2.0936   -7.7659   31.2531 H   0  0  0  0  0  0  0  0  0  0  0  0
   -0.5332   -8.4439   31.6895 H   0  0  0  0  0  0  0  0  0  0  0  0
   -1.9265   -8.5851   32.8122 H   0  0  0  0  0  0  0  0  0  0  0  0
   -0.8891   -7.5252   34.5172 H   0  0  0  0  0  0  0  0  0  0  0  0
    1.3013   -7.9915   34.2929 H   0  0  0  0  0  0  0  0  0  0  0  0
    1.1253   -7.4980   32.5856 H   0  0  0  0  0  0  0  0  0  0  0  0
    3.0246   -6.4425   33.3701 H   0  0  0  0  0  0  0  0  0  0  0  0
    2.3516   -6.0774   34.9066 H   0  0  0  0  0  0  0  0  0  0  0  0
    2.4144   -3.3497   34.9872 H   0  0  0  0  0  0  0  0  0  0  0  0
    5.0614   -2.7853   34.8090 H   0  0  0  0  0  0  0  0  0  0  0  0
    6.2244   -1.7105   32.5816 H   0  0  0  0  0  0  0  0  0  0  0  0
    6.6679   -3.2807   33.2690 H   0  0  0  0  0  0  0  0  0  0  0  0
    5.0192   -2.6748   31.0005 H   0  0  0  0  0  0  0  0  0  0  0  0
    0.1206   -5.4904   31.1644 H   0  0  0  0  0  0  0  0  0  0  0  0
    1.3908   -5.6589   29.9711 H   0  0  0  0  0  0  0  0  0  0  0  0
    1.3145   -3.2928   29.4072 H   0  0  0  0  0  0  0  0  0  0  0  0
   -0.3552   -3.8583   29.4570 H   0  0  0  0  0  0  0  0  0  0  0  0
    1.0796   -2.2007   31.5398 H   0  0  0  0  0  0  0  0  0  0  0  0
   -2.2200   -2.2423   28.6297 H   0  0  0  0  0  0  0  0  0  0  0  0
   -2.2737   -0.6600   26.7410 H   0  0  0  0  0  0  0  0  0  0  0  0
   -1.4607    2.6913   27.1371 H   0  0  0  0  0  0  0  0  0  0  0  0
   -0.3070    2.3129   29.1312 H   0  0  0  0  0  0  0  0  0  0  0  0
   -0.2319    0.7383   31.0330 H   0  0  0  0  0  0  0  0  0  0  0  0
    0.2272   -3.3958   34.2368 H   0  0  0  0  0  0  0  0  0  0  0  0
   -0.3875   -4.2530   32.8536 H   0  0  0  0  0  0  0  0  0  0  0  0
   -1.4175   -5.0911   34.8225 H   0  0  0  0  0  0  0  0  0  0  0  0
   -0.3788   -7.2701   36.6344 H   0  0  0  0  0  0  0  0  0  0  0  0
   -1.3442   -5.8142   37.0567 H   0  0  0  0  0  0  0  0  0  0  0  0
    0.2368   -6.0965   37.8052 H   0  0  0  0  0  0  0  0  0  0  0  0
  1  2  1  0
  2  3  1  0
  3  4  1  0
  4  5  1  0
  5  6  1  0
  6  7  1  0
  7  8  2  0
  8  9  1  0
  9 10  1  0
 10 11  1  0
 11 12  1  0
 12 13  1  0
 13 14  2  0
 14 15  1  0
 15 16  1  0
 16 17  1  0
 17 18  1  0
 18 19  2  0
 18 20  2  0
 18 21  1  0
 21 22  2  0
 22 23  1  0
 23 24  2  0
 24 25  1  0
 24 26  1  0
 26 27  2  0
  6 28  1  0
 28 29  1  0
 29 30  1  0
 30 31  1  0
 29  3  1  0
 14  6  1  0
 27 21  1  0
 12  8  1  0
  1 32  1  0
  1 33  1  0
  1 34  1  0
  3 35  1  0
  4 36  1  0
  4 37  1  0
  5 38  1  0
  5 39  1  0
  7 40  1  0
  9 41  1  0
 10 42  1  0
 10 43  1  0
 11 44  1  0
 15 45  1  0
 15 46  1  0
 16 47  1  0
 16 48  1  0
 17 49  1  0
 22 50  1  0
 23 51  1  0
 25 52  1  0
 26 53  1  0
 27 54  1  0
 28 55  1  0
 28 56  1  0
 29 57  1  0
 31 58  1  0
 31 59  1  0
 31 60  1  0
M  END
>  <Energy>  (809) 
-10.731262322954533

>  <compound_id>  (809) 
2883

>  <target_id>  (809) 
1

>  <reference_id>  (809) 
183

>  <inspiration_ids>  (809) 
[187, 183]

>  <energy_score>  (809) 
-102.82617067986314

>  <distance_score>  (809) 
1.2364836057185342

>  <path>  (809) 
/opt/xchem-fragalysis-2/maxwin/BulkDock/SCRATCH/505736/C2883-P183/C2883-P183.minimised.mol

>  <scratch_subdir>  (809) 
/opt/xchem-fragalysis-2/maxwin/BulkDock/SCRATCH/505736/C2883-P183

>  <fragmenstein_runtime>  (809) 
7.482777118682861

>  <fragmenstein_outcome>  (809) 
too moved

>  <fragmenstein_mode>  (809) 
expansion

>  <fragmenstein_error>  (809) 


$$$$
C2883-P187
     RDKit          2D

  0  0  0  0  0  0  0  0  0  0999 V2000
M  END
>  <compound_id>  (810) 
2883

>  <target_id>  (810) 
1

>  <reference_id>  (810) 
187

>  <inspiration_ids>  (810) 
[187, 186]

>  <energy_score>  (810) 
nan

>  <distance_score>  (810) 
nan

>  <path>  (810) 
/opt/xchem-fragalysis-2/maxwin/BulkDock/SCRATCH/505736/C2883-P187/C2883-P187.minimised.mol

>  <scratch_subdir>  (810) 
/opt/xchem-fragalysis-2/maxwin/BulkDock/SCRATCH/505736/C2883-P187

>  <fragmenstein_runtime>  (810) 
1.2715494632720947

>  <fragmenstein_outcome>  (810) 
too distant

>  <fragmenstein_mode>  (810) 
expansion

>  <fragmenstein_error>  (810) 
DistanceError: hit0+hit1

$$$$
C2895-P188
     RDKit          3D

 48 51  0  0  0  0  0  0  0  0999 V2000
   -1.0767   -6.2016   36.2113 O   0  0  0  0  0  0  0  0  0  0  0  0
   -0.1616   -5.5476   36.0046 C   0  0  0  0  0  0  0  0  0  0  0  0
    0.6314   -4.5898   36.9548 N   0  0  0  0  0  0  0  0  0  0  0  0
    0.3823   -4.2204   38.2450 C   0  0  0  0  0  0  0  0  0  0  0  0
    1.1117   -3.3504   39.0788 C   0  0  0  0  0  0  0  0  0  0  0  0
    0.5552   -3.2155   40.2872 N   0  0  0  0  0  0  0  0  0  0  0  0
   -0.5363   -4.0027   40.2174 N   0  0  0  0  0  0  0  0  0  0  0  0
   -0.6738   -4.6300   39.0151 C   0  0  0  0  0  0  0  0  0  0  0  0
    0.6672   -5.3555   34.6908 N   0  0  0  0  0  0  0  0  0  0  0  0
    0.4596   -5.8449   33.4398 C   0  0  0  0  0  0  0  0  0  0  0  0
    1.2580   -5.1801   32.5191 N   0  0  0  0  0  0  0  0  0  0  0  0
    1.0341   -5.4033   31.2496 C   0  0  0  0  0  0  0  0  0  0  0  0
    1.7364   -4.5447   30.2348 C   0  0  0  0  0  0  0  0  0  0  0  0
    0.8093   -3.3938   29.8663 C   0  0  0  0  0  0  0  0  0  0  0  0
    0.5155   -2.5971   31.0572 N   0  0  0  0  0  0  0  0  0  0  0  0
   -0.9968   -1.9352   31.2942 S   0  0  0  0  0  0  0  0  0  0  0  0
   -1.9818   -2.9884   31.1631 O   0  0  0  0  0  0  0  0  0  0  0  0
   -0.9122   -1.1189   32.4855 O   0  0  0  0  0  0  0  0  0  0  0  0
   -1.0967   -0.8535   29.8987 C   0  0  0  0  0  0  0  0  0  0  0  0
   -1.5934   -1.3375   28.6940 C   0  0  0  0  0  0  0  0  0  0  0  0
   -1.7265   -0.4682   27.6182 C   0  0  0  0  0  0  0  0  0  0  0  0
   -1.3667    0.8634   27.7429 C   0  0  0  0  0  0  0  0  0  0  0  0
   -1.6011    1.7369   26.7267 O   0  0  0  0  0  0  0  0  0  0  0  0
   -0.8028    1.3334   28.9170 C   0  0  0  0  0  0  0  0  0  0  0  0
   -0.6789    0.4756   30.0125 C   0  0  0  0  0  0  0  0  0  0  0  0
    0.1459   -6.3379   30.7984 N   0  0  0  0  0  0  0  0  0  0  0  0
   -0.5913   -7.0479   31.6759 C   0  0  0  0  0  0  0  0  0  0  0  0
   -1.4891   -7.9545   31.4364 N   0  0  0  0  0  0  0  0  0  0  0  0
   -1.9889   -8.3684   32.7147 N   0  0  0  0  0  0  0  0  0  0  0  0
   -1.3852   -7.7060   33.6636 C   0  0  0  0  0  0  0  0  0  0  0  0
   -0.4274   -6.7901   33.1082 C   0  0  0  0  0  0  0  0  0  0  0  0
    1.4351   -4.2277   36.4758 H   0  0  0  0  0  0  0  0  0  0  0  0
    2.0207   -2.8059   38.8624 H   0  0  0  0  0  0  0  0  0  0  0  0
   -1.1462   -4.0656   41.0264 H   0  0  0  0  0  0  0  0  0  0  0  0
   -1.5029   -5.2937   38.8207 H   0  0  0  0  0  0  0  0  0  0  0  0
    1.3608   -4.6452   34.8299 H   0  0  0  0  0  0  0  0  0  0  0  0
    2.6751   -4.1722   30.6603 H   0  0  0  0  0  0  0  0  0  0  0  0
    1.9757   -5.1426   29.3492 H   0  0  0  0  0  0  0  0  0  0  0  0
    1.2975   -2.7555   29.1226 H   0  0  0  0  0  0  0  0  0  0  0  0
   -0.1084   -3.7940   29.4236 H   0  0  0  0  0  0  0  0  0  0  0  0
    1.2707   -2.1617   31.5831 H   0  0  0  0  0  0  0  0  0  0  0  0
   -1.9135   -2.3690   28.5826 H   0  0  0  0  0  0  0  0  0  0  0  0
   -2.1532   -0.8334   26.6927 H   0  0  0  0  0  0  0  0  0  0  0  0
   -2.4483    1.4774   26.3202 H   0  0  0  0  0  0  0  0  0  0  0  0
   -0.5048    2.3760   28.9876 H   0  0  0  0  0  0  0  0  0  0  0  0
   -0.2694    0.8541   30.9453 H   0  0  0  0  0  0  0  0  0  0  0  0
   -0.0760   -6.4366   29.8191 H   0  0  0  0  0  0  0  0  0  0  0  0
   -1.5591   -7.8340   34.7336 H   0  0  0  0  0  0  0  0  0  0  0  0
  1  2  2  0
  2  3  1  0
  3  4  1  0
  4  5  1  0
  5  6  2  0
  6  7  1  0
  7  8  1  0
  2  9  1  0
  9 10  1  0
 10 11  1  0
 11 12  2  0
 12 13  1  0
 13 14  1  0
 14 15  1  0
 15 16  1  0
 16 17  2  0
 16 18  2  0
 16 19  1  0
 19 20  2  0
 20 21  1  0
 21 22  2  0
 22 23  1  0
 22 24  1  0
 24 25  2  0
 12 26  1  0
 26 27  1  0
 27 28  2  0
 28 29  1  0
 29 30  2  0
 30 31  1  0
  8  4  2  0
 31 10  2  0
 25 19  1  0
 31 27  1  0
  3 32  1  0
  5 33  1  0
  7 34  1  0
  8 35  1  0
  9 36  1  0
 13 37  1  0
 13 38  1  0
 14 39  1  0
 14 40  1  0
 15 41  1  0
 20 42  1  0
 21 43  1  0
 23 44  1  0
 24 45  1  0
 25 46  1  0
 26 47  1  0
 30 48  1  0
M  END
>  <Energy>  (811) 
-91.411167241789727

>  <compound_id>  (811) 
2895

>  <target_id>  (811) 
1

>  <reference_id>  (811) 
188

>  <inspiration_ids>  (811) 
[188, 25]

>  <energy_score>  (811) 
-49.80908637649114

>  <distance_score>  (811) 
0.6681445826749681

>  <path>  (811) 
/opt/xchem-fragalysis-2/maxwin/BulkDock/SCRATCH/505736/C2895-P188/C2895-P188.minimised.mol

>  <scratch_subdir>  (811) 
/opt/xchem-fragalysis-2/maxwin/BulkDock/SCRATCH/505736/C2895-P188

>  <fragmenstein_runtime>  (811) 
6.613448619842529

>  <fragmenstein_outcome>  (811) 
acceptable

>  <fragmenstein_mode>  (811) 
expansion

>  <fragmenstein_error>  (811) 


$$$$
C2895-P25
     RDKit          3D

 48 51  0  0  0  0  0  0  0  0999 V2000
   -0.9913   -6.2826   36.5388 O   0  0  0  0  0  0  0  0  0  0  0  0
   -0.1837   -5.5134   36.2859 C   0  0  0  0  0  0  0  0  0  0  0  0
    0.5349   -4.4660   37.1989 N   0  0  0  0  0  0  0  0  0  0  0  0
    0.3204   -4.1397   38.5070 C   0  0  0  0  0  0  0  0  0  0  0  0
    0.9812   -3.1850   39.3043 C   0  0  0  0  0  0  0  0  0  0  0  0
    0.4883   -3.1293   40.5455 N   0  0  0  0  0  0  0  0  0  0  0  0
   -0.4929   -4.0520   40.5352 N   0  0  0  0  0  0  0  0  0  0  0  0
   -0.6236   -4.6882   39.3357 C   0  0  0  0  0  0  0  0  0  0  0  0
    0.5225   -5.1996   34.9242 N   0  0  0  0  0  0  0  0  0  0  0  0
    0.2945   -5.6964   33.6798 C   0  0  0  0  0  0  0  0  0  0  0  0
    1.0228   -5.0014   32.7220 N   0  0  0  0  0  0  0  0  0  0  0  0
    0.7516   -5.2299   31.4622 C   0  0  0  0  0  0  0  0  0  0  0  0
    1.5184   -4.4810   30.3997 C   0  0  0  0  0  0  0  0  0  0  0  0
    0.7108   -3.3075   29.9216 C   0  0  0  0  0  0  0  0  0  0  0  0
    0.4520   -2.4319   31.0599 N   0  0  0  0  0  0  0  0  0  0  0  0
   -1.0303   -1.6799   31.1419 S   0  0  0  0  0  0  0  0  0  0  0  0
   -2.0448   -2.7107   31.0687 O   0  0  0  0  0  0  0  0  0  0  0  0
   -0.9726   -0.7542   32.2518 O   0  0  0  0  0  0  0  0  0  0  0  0
   -0.9654   -0.7598   29.6303 C   0  0  0  0  0  0  0  0  0  0  0  0
   -1.4370   -1.3156   28.4482 C   0  0  0  0  0  0  0  0  0  0  0  0
   -1.5227   -0.5338   27.3023 C   0  0  0  0  0  0  0  0  0  0  0  0
   -1.1425    0.7954   27.3436 C   0  0  0  0  0  0  0  0  0  0  0  0
   -1.3717    1.6152   26.2831 O   0  0  0  0  0  0  0  0  0  0  0  0
   -0.5371    1.3142   28.4763 C   0  0  0  0  0  0  0  0  0  0  0  0
   -0.4296    0.5241   29.6248 C   0  0  0  0  0  0  0  0  0  0  0  0
   -0.1789   -6.1472   31.0620 N   0  0  0  0  0  0  0  0  0  0  0  0
   -0.7621   -6.9603   31.9685 C   0  0  0  0  0  0  0  0  0  0  0  0
   -1.5447   -7.9777   31.7726 N   0  0  0  0  0  0  0  0  0  0  0  0
   -1.9003   -8.4752   33.0744 N   0  0  0  0  0  0  0  0  0  0  0  0
   -1.3331   -7.7436   33.9920 C   0  0  0  0  0  0  0  0  0  0  0  0
   -0.5204   -6.7182   33.3918 C   0  0  0  0  0  0  0  0  0  0  0  0
    1.2537   -3.9989   36.6766 H   0  0  0  0  0  0  0  0  0  0  0  0
    1.7960   -2.5248   39.0395 H   0  0  0  0  0  0  0  0  0  0  0  0
   -1.0357   -4.1961   41.3810 H   0  0  0  0  0  0  0  0  0  0  0  0
   -1.3712   -5.4542   39.1875 H   0  0  0  0  0  0  0  0  0  0  0  0
    1.1277   -4.4068   35.0320 H   0  0  0  0  0  0  0  0  0  0  0  0
    2.4757   -4.1449   30.8146 H   0  0  0  0  0  0  0  0  0  0  0  0
    1.7198   -5.1445   29.5530 H   0  0  0  0  0  0  0  0  0  0  0  0
    1.2674   -2.7566   29.1566 H   0  0  0  0  0  0  0  0  0  0  0  0
   -0.2153   -3.6811   29.4751 H   0  0  0  0  0  0  0  0  0  0  0  0
    1.2196   -1.9112   31.4804 H   0  0  0  0  0  0  0  0  0  0  0  0
   -1.7824   -2.3408   28.4073 H   0  0  0  0  0  0  0  0  0  0  0  0
   -1.9168   -0.9707   26.3912 H   0  0  0  0  0  0  0  0  0  0  0  0
   -2.2573    1.4055   25.9276 H   0  0  0  0  0  0  0  0  0  0  0  0
   -0.1983    2.3474   28.4807 H   0  0  0  0  0  0  0  0  0  0  0  0
    0.0316    0.9358   30.5183 H   0  0  0  0  0  0  0  0  0  0  0  0
   -0.3834   -6.3045   30.0830 H   0  0  0  0  0  0  0  0  0  0  0  0
   -1.4159   -7.9130   35.0665 H   0  0  0  0  0  0  0  0  0  0  0  0
  1  2  2  0
  2  3  1  0
  3  4  1  0
  4  5  1  0
  5  6  2  0
  6  7  1  0
  7  8  1  0
  2  9  1  0
  9 10  1  0
 10 11  1  0
 11 12  2  0
 12 13  1  0
 13 14  1  0
 14 15  1  0
 15 16  1  0
 16 17  2  0
 16 18  2  0
 16 19  1  0
 19 20  2  0
 20 21  1  0
 21 22  2  0
 22 23  1  0
 22 24  1  0
 24 25  2  0
 12 26  1  0
 26 27  1  0
 27 28  2  0
 28 29  1  0
 29 30  2  0
 30 31  1  0
  8  4  2  0
 31 10  2  0
 25 19  1  0
 31 27  1  0
  3 32  1  0
  5 33  1  0
  7 34  1  0
  8 35  1  0
  9 36  1  0
 13 37  1  0
 13 38  1  0
 14 39  1  0
 14 40  1  0
 15 41  1  0
 20 42  1  0
 21 43  1  0
 23 44  1  0
 24 45  1  0
 25 46  1  0
 26 47  1  0
 30 48  1  0
M  END
>  <Energy>  (812) 
-88.455495629696827

>  <compound_id>  (812) 
2895

>  <target_id>  (812) 
1

>  <reference_id>  (812) 
25

>  <inspiration_ids>  (812) 
[188, 25]

>  <energy_score>  (812) 
-46.85341476440291

>  <distance_score>  (812) 
0.7395945930188147

>  <path>  (812) 
/opt/xchem-fragalysis-2/maxwin/BulkDock/SCRATCH/505736/C2895-P25/C2895-P25.minimised.mol

>  <scratch_subdir>  (812) 
/opt/xchem-fragalysis-2/maxwin/BulkDock/SCRATCH/505736/C2895-P25

>  <fragmenstein_runtime>  (812) 
5.831112623214722

>  <fragmenstein_outcome>  (812) 
acceptable

>  <fragmenstein_mode>  (812) 
expansion

>  <fragmenstein_error>  (812) 


$$$$
C2896-P188
     RDKit          3D

 57 58  0  0  0  0  0  0  0  0999 V2000
   -1.5104   -8.7663   31.2040 N   0  0  0  0  0  0  0  0  0  0  0  0
   -0.6946   -7.6297   31.4785 N   0  0  0  0  0  0  0  0  0  0  0  0
   -0.6448   -7.3880   32.9318 C   0  0  0  0  0  0  0  0  0  0  0  0
    0.5241   -6.4702   33.3204 C   0  0  0  0  0  0  0  0  0  0  0  0
    0.7005   -5.2383   32.4280 C   0  0  0  0  0  0  0  0  0  0  0  0
    1.3490   -5.5329   31.1951 N   0  0  0  0  0  0  0  0  0  0  0  0
    2.4245   -4.8141   30.4713 C   0  0  0  0  0  0  0  0  0  0  0  0
    3.0483   -3.8745   30.7855 O   0  0  0  0  0  0  0  0  0  0  0  0
    2.4811   -5.6337   29.2249 N   0  0  0  0  0  0  0  0  0  0  0  0
    3.2370   -5.4899   28.1006 C   0  0  0  0  0  0  0  0  0  0  0  0
    4.1619   -4.4750   27.7934 C   0  0  0  0  0  0  0  0  0  0  0  0
    4.7210   -4.6574   26.5952 N   0  0  0  0  0  0  0  0  0  0  0  0
    4.1835   -5.8031   26.1578 N   0  0  0  0  0  0  0  0  0  0  0  0
    3.2577   -6.3290   27.0160 C   0  0  0  0  0  0  0  0  0  0  0  0
   -0.6073   -4.7785   32.0301 N   0  0  0  0  0  0  0  0  0  0  0  0
   -0.6141   -3.5101   31.3593 C   0  0  0  0  0  0  0  0  0  0  0  0
   -1.2041   -3.8065   30.0872 N   0  0  0  0  0  0  0  0  0  0  0  0
   -1.4912   -2.5659   32.1592 C   0  0  0  0  0  0  0  0  0  0  0  0
   -0.6411   -1.8866   33.2183 C   0  0  0  0  0  0  0  0  0  0  0  0
    0.2116   -0.8733   32.5667 N   0  0  0  0  0  0  0  0  0  0  0  0
   -0.5878    0.5574   32.1870 S   0  0  0  0  0  0  0  0  0  0  0  0
   -2.0086    0.3739   32.4043 O   0  0  0  0  0  0  0  0  0  0  0  0
    0.1329    1.5907   32.8954 O   0  0  0  0  0  0  0  0  0  0  0  0
   -0.3197    0.7768   30.4435 C   0  0  0  0  0  0  0  0  0  0  0  0
   -1.1486    0.1324   29.5170 C   0  0  0  0  0  0  0  0  0  0  0  0
   -1.1410    0.5324   28.1797 C   0  0  0  0  0  0  0  0  0  0  0  0
   -0.3561    1.6114   27.7982 C   0  0  0  0  0  0  0  0  0  0  0  0
   -0.5025    2.0998   26.5349 O   0  0  0  0  0  0  0  0  0  0  0  0
    0.5129    2.2226   28.6962 C   0  0  0  0  0  0  0  0  0  0  0  0
    0.5431    1.7955   30.0239 C   0  0  0  0  0  0  0  0  0  0  0  0
   -0.9726   -9.6324   31.3449 H   0  0  0  0  0  0  0  0  0  0  0  0
   -2.3094   -8.8533   31.8577 H   0  0  0  0  0  0  0  0  0  0  0  0
   -1.1032   -6.7642   31.0831 H   0  0  0  0  0  0  0  0  0  0  0  0
   -1.5923   -6.9430   33.2587 H   0  0  0  0  0  0  0  0  0  0  0  0
   -0.5549   -8.3108   33.4969 H   0  0  0  0  0  0  0  0  0  0  0  0
    0.3420   -6.1358   34.3505 H   0  0  0  0  0  0  0  0  0  0  0  0
    1.4574   -7.0389   33.3418 H   0  0  0  0  0  0  0  0  0  0  0  0
    1.2780   -4.4752   32.9610 H   0  0  0  0  0  0  0  0  0  0  0  0
    0.9717   -6.2462   30.6042 H   0  0  0  0  0  0  0  0  0  0  0  0
    1.7519   -6.3175   29.2451 H   0  0  0  0  0  0  0  0  0  0  0  0
    4.4441   -3.6113   28.3844 H   0  0  0  0  0  0  0  0  0  0  0  0
    4.4865   -6.1595   25.2550 H   0  0  0  0  0  0  0  0  0  0  0  0
    2.7421   -7.2394   26.7643 H   0  0  0  0  0  0  0  0  0  0  0  0
   -1.2032   -4.7428   32.8570 H   0  0  0  0  0  0  0  0  0  0  0  0
    0.3756   -3.0737   31.1906 H   0  0  0  0  0  0  0  0  0  0  0  0
   -0.5597   -4.3946   29.5665 H   0  0  0  0  0  0  0  0  0  0  0  0
   -1.2871   -2.9598   29.5219 H   0  0  0  0  0  0  0  0  0  0  0  0
   -1.9775   -1.8480   31.5003 H   0  0  0  0  0  0  0  0  0  0  0  0
   -2.3251   -3.0809   32.6472 H   0  0  0  0  0  0  0  0  0  0  0  0
    0.0032   -2.5980   33.7454 H   0  0  0  0  0  0  0  0  0  0  0  0
   -1.2600   -1.4240   33.9954 H   0  0  0  0  0  0  0  0  0  0  0  0
    1.0518   -0.6411   33.1031 H   0  0  0  0  0  0  0  0  0  0  0  0
   -1.8643   -0.6201   29.8226 H   0  0  0  0  0  0  0  0  0  0  0  0
   -1.8015    0.0601   27.4554 H   0  0  0  0  0  0  0  0  0  0  0  0
   -0.3235    3.0561   26.5701 H   0  0  0  0  0  0  0  0  0  0  0  0
    1.1395    3.0541   28.3865 H   0  0  0  0  0  0  0  0  0  0  0  0
    1.1772    2.3225   30.7336 H   0  0  0  0  0  0  0  0  0  0  0  0
  1  2  1  0
  2  3  1  0
  3  4  1  0
  4  5  1  0
  5  6  1  0
  6  7  1  0
  7  8  2  0
  7  9  1  0
  9 10  1  0
 10 11  1  0
 11 12  2  0
 12 13  1  0
 13 14  1  0
  5 15  1  0
 15 16  1  0
 16 17  1  0
 16 18  1  0
 18 19  1  0
 19 20  1  0
 20 21  1  0
 21 22  2  0
 21 23  2  0
 21 24  1  0
 24 25  2  0
 25 26  1  0
 26 27  2  0
 27 28  1  0
 27 29  1  0
 29 30  2  0
 14 10  2  0
 30 24  1  0
  1 31  1  0
  1 32  1  0
  2 33  1  0
  3 34  1  0
  3 35  1  0
  4 36  1  0
  4 37  1  0
  5 38  1  0
  6 39  1  0
  9 40  1  0
 11 41  1  0
 13 42  1  0
 14 43  1  0
 15 44  1  0
 16 45  1  0
 17 46  1  0
 17 47  1  0
 18 48  1  0
 18 49  1  0
 19 50  1  0
 19 51  1  0
 20 52  1  0
 25 53  1  0
 26 54  1  0
 28 55  1  0
 29 56  1  0
 30 57  1  0
M  END
>  <Energy>  (813) 
-133.27716772192022

>  <compound_id>  (813) 
2896

>  <target_id>  (813) 
1

>  <reference_id>  (813) 
188

>  <inspiration_ids>  (813) 
[188, 40]

>  <energy_score>  (813) 
-31.92272075274434

>  <distance_score>  (813) 
2.6478317178759454

>  <path>  (813) 
/opt/xchem-fragalysis-2/maxwin/BulkDock/SCRATCH/505736/C2896-P188/C2896-P188.minimised.mol

>  <scratch_subdir>  (813) 
/opt/xchem-fragalysis-2/maxwin/BulkDock/SCRATCH/505736/C2896-P188

>  <fragmenstein_runtime>  (813) 
17.525963306427002

>  <fragmenstein_outcome>  (813) 
too moved

>  <fragmenstein_mode>  (813) 
expansion

>  <fragmenstein_error>  (813) 


$$$$
C2896-P40
     RDKit          3D

 57 58  0  0  0  0  0  0  0  0999 V2000
   -1.6068   -9.1097   31.3380 N   0  0  0  0  0  0  0  0  0  0  0  0
   -1.0947   -7.7951   31.3445 N   0  0  0  0  0  0  0  0  0  0  0  0
   -0.7103   -7.4640   32.7148 C   0  0  0  0  0  0  0  0  0  0  0  0
    0.2830   -6.3223   32.7844 C   0  0  0  0  0  0  0  0  0  0  0  0
   -0.1802   -5.0900   32.0129 C   0  0  0  0  0  0  0  0  0  0  0  0
    0.4496   -4.8457   30.7509 N   0  0  0  0  0  0  0  0  0  0  0  0
    0.9876   -5.7816   29.7386 C   0  0  0  0  0  0  0  0  0  0  0  0
    0.9544   -6.9556   29.6964 O   0  0  0  0  0  0  0  0  0  0  0  0
    1.6679   -4.8078   28.8453 N   0  0  0  0  0  0  0  0  0  0  0  0
    2.5086   -5.0033   27.7937 C   0  0  0  0  0  0  0  0  0  0  0  0
    3.1688   -4.0037   27.0601 C   0  0  0  0  0  0  0  0  0  0  0  0
    3.9341   -4.5107   26.0945 N   0  0  0  0  0  0  0  0  0  0  0  0
    3.7991   -5.8404   26.2403 N   0  0  0  0  0  0  0  0  0  0  0  0
    2.9629   -6.1828   27.2661 C   0  0  0  0  0  0  0  0  0  0  0  0
    0.0730   -3.8450   32.7507 N   0  0  0  0  0  0  0  0  0  0  0  0
    1.4648   -3.5629   33.0159 C   0  0  0  0  0  0  0  0  0  0  0  0
    1.7125   -4.0863   34.3384 N   0  0  0  0  0  0  0  0  0  0  0  0
    1.7453   -2.0502   32.9989 C   0  0  0  0  0  0  0  0  0  0  0  0
    1.4624   -1.3498   31.6663 C   0  0  0  0  0  0  0  0  0  0  0  0
    0.0238   -1.0663   31.5171 N   0  0  0  0  0  0  0  0  0  0  0  0
   -0.7936   -1.6436   30.1655 S   0  0  0  0  0  0  0  0  0  0  0  0
    0.0712   -2.6062   29.5166 O   0  0  0  0  0  0  0  0  0  0  0  0
   -2.1060   -1.9862   30.6675 O   0  0  0  0  0  0  0  0  0  0  0  0
   -0.9604   -0.2844   29.0662 C   0  0  0  0  0  0  0  0  0  0  0  0
   -1.7052   -0.5045   27.9062 C   0  0  0  0  0  0  0  0  0  0  0  0
   -1.8688    0.5276   26.9900 C   0  0  0  0  0  0  0  0  0  0  0  0
   -1.2929    1.7643   27.2345 C   0  0  0  0  0  0  0  0  0  0  0  0
   -1.4948    2.7469   26.3143 O   0  0  0  0  0  0  0  0  0  0  0  0
   -0.5253    1.9841   28.3744 C   0  0  0  0  0  0  0  0  0  0  0  0
   -0.3518    0.9497   29.3003 C   0  0  0  0  0  0  0  0  0  0  0  0
   -0.8510   -9.7953   31.4781 H   0  0  0  0  0  0  0  0  0  0  0  0
   -2.2812   -9.2459   32.1051 H   0  0  0  0  0  0  0  0  0  0  0  0
   -0.2706   -7.7089   30.7238 H   0  0  0  0  0  0  0  0  0  0  0  0
   -0.2524   -8.3176   33.2266 H   0  0  0  0  0  0  0  0  0  0  0  0
   -1.6068   -7.2001   33.2869 H   0  0  0  0  0  0  0  0  0  0  0  0
    0.3660   -6.1109   33.8563 H   0  0  0  0  0  0  0  0  0  0  0  0
    1.2763   -6.6411   32.4568 H   0  0  0  0  0  0  0  0  0  0  0  0
   -1.2535   -5.1268   31.8181 H   0  0  0  0  0  0  0  0  0  0  0  0
    0.5808   -3.9041   30.4341 H   0  0  0  0  0  0  0  0  0  0  0  0
    1.4190   -3.8693   29.1232 H   0  0  0  0  0  0  0  0  0  0  0  0
    3.1182   -2.9287   27.1797 H   0  0  0  0  0  0  0  0  0  0  0  0
    4.3067   -6.4487   25.6018 H   0  0  0  0  0  0  0  0  0  0  0  0
    2.7804   -7.2153   27.5108 H   0  0  0  0  0  0  0  0  0  0  0  0
   -0.3999   -3.9376   33.6496 H   0  0  0  0  0  0  0  0  0  0  0  0
    2.1515   -4.0423   32.3093 H   0  0  0  0  0  0  0  0  0  0  0  0
    1.2363   -3.5155   35.0348 H   0  0  0  0  0  0  0  0  0  0  0  0
    2.7048   -3.9980   34.5561 H   0  0  0  0  0  0  0  0  0  0  0  0
    1.1880   -1.5453   33.8007 H   0  0  0  0  0  0  0  0  0  0  0  0
    2.8091   -1.9020   33.2310 H   0  0  0  0  0  0  0  0  0  0  0  0
    1.8948   -1.9083   30.8333 H   0  0  0  0  0  0  0  0  0  0  0  0
    1.9674   -0.3762   31.6718 H   0  0  0  0  0  0  0  0  0  0  0  0
   -0.5488   -1.2819   32.3383 H   0  0  0  0  0  0  0  0  0  0  0  0
   -2.1523   -1.4751   27.6964 H   0  0  0  0  0  0  0  0  0  0  0  0
   -2.4451    0.3602   26.0864 H   0  0  0  0  0  0  0  0  0  0  0  0
   -1.5269    3.5984   26.7866 H   0  0  0  0  0  0  0  0  0  0  0  0
   -0.0628    2.9514   28.5504 H   0  0  0  0  0  0  0  0  0  0  0  0
    0.2468    1.1268   30.1877 H   0  0  0  0  0  0  0  0  0  0  0  0
  1  2  1  0
  2  3  1  0
  3  4  1  0
  4  5  1  0
  5  6  1  0
  6  7  1  0
  7  8  2  0
  7  9  1  0
  9 10  1  0
 10 11  1  0
 11 12  2  0
 12 13  1  0
 13 14  1  0
  5 15  1  0
 15 16  1  0
 16 17  1  0
 16 18  1  0
 18 19  1  0
 19 20  1  0
 20 21  1  0
 21 22  2  0
 21 23  2  0
 21 24  1  0
 24 25  2  0
 25 26  1  0
 26 27  2  0
 27 28  1  0
 27 29  1  0
 29 30  2  0
 14 10  2  0
 30 24  1  0
  1 31  1  0
  1 32  1  0
  2 33  1  0
  3 34  1  0
  3 35  1  0
  4 36  1  0
  4 37  1  0
  5 38  1  0
  6 39  1  0
  9 40  1  0
 11 41  1  0
 13 42  1  0
 14 43  1  0
 15 44  1  0
 16 45  1  0
 17 46  1  0
 17 47  1  0
 18 48  1  0
 18 49  1  0
 19 50  1  0
 19 51  1  0
 20 52  1  0
 25 53  1  0
 26 54  1  0
 28 55  1  0
 29 56  1  0
 30 57  1  0
M  END
>  <Energy>  (814) 
-140.06991822117766

>  <compound_id>  (814) 
2896

>  <target_id>  (814) 
1

>  <reference_id>  (814) 
40

>  <inspiration_ids>  (814) 
[188, 40]

>  <energy_score>  (814) 
-38.715471252003056

>  <distance_score>  (814) 
2.3489828137448754

>  <path>  (814) 
/opt/xchem-fragalysis-2/maxwin/BulkDock/SCRATCH/505736/C2896-P40/C2896-P40.minimised.mol

>  <scratch_subdir>  (814) 
/opt/xchem-fragalysis-2/maxwin/BulkDock/SCRATCH/505736/C2896-P40

>  <fragmenstein_runtime>  (814) 
19.700063228607178

>  <fragmenstein_outcome>  (814) 
too moved

>  <fragmenstein_mode>  (814) 
expansion

>  <fragmenstein_error>  (814) 


$$$$
C2898-P188
     RDKit          3D

 73 75  0  0  0  0  0  0  0  0999 V2000
   -0.9040    8.4249   27.3760 C   0  0  0  0  0  0  0  0  0  0  0  0
   -0.3318    7.0205   27.4748 C   0  0  0  0  0  0  0  0  0  0  0  0
    0.7219    6.7632   26.3954 C   0  0  0  0  0  0  0  0  0  0  0  0
    1.2239    5.3551   26.4621 C   0  0  0  0  0  0  0  0  0  0  0  0
    2.3409    4.9986   27.1863 C   0  0  0  0  0  0  0  0  0  0  0  0
    2.7635    3.7294   27.3742 N   0  0  0  0  0  0  0  0  0  0  0  0
    1.9724    2.7744   26.8589 C   0  0  0  0  0  0  0  0  0  0  0  0
    1.5518    1.6964   27.8555 C   0  0  0  0  0  0  0  0  0  0  0  0
    2.4272    0.4600   28.1231 C   0  0  0  0  0  0  0  0  0  0  0  0
    1.5693   -0.7515   27.9518 N   0  0  0  0  0  0  0  0  0  0  0  0
    1.4021   -2.0034   29.0383 S   0  0  0  0  0  0  0  0  0  0  0  0
    1.3175   -3.2174   28.2525 O   0  0  0  0  0  0  0  0  0  0  0  0
    2.4433   -1.8332   30.0272 O   0  0  0  0  0  0  0  0  0  0  0  0
   -0.1854   -1.7334   29.7986 C   0  0  0  0  0  0  0  0  0  0  0  0
   -0.7269   -2.8182   30.7362 C   0  0  0  0  0  0  0  0  0  0  0  0
    0.2457   -3.4692   31.6847 C   0  0  0  0  0  0  0  0  0  0  0  0
    1.0522   -4.6100   31.0682 C   0  0  0  0  0  0  0  0  0  0  0  0
    1.4714   -5.5489   32.1722 C   0  0  0  0  0  0  0  0  0  0  0  0
    0.2967   -5.3663   30.1296 O   0  0  0  0  0  0  0  0  0  0  0  0
   -1.3259   -1.4974   28.8155 C   0  0  0  0  0  0  0  0  0  0  0  0
   -1.3829   -0.2808   27.9228 C   0  0  0  0  0  0  0  0  0  0  0  0
   -1.6282    1.0492   28.6249 C   0  0  0  0  0  0  0  0  0  0  0  0
   -1.8180    2.2075   27.6239 C   0  0  0  0  0  0  0  0  0  0  0  0
   -2.9195    1.9576   26.5738 C   0  0  0  0  0  0  0  0  0  0  0  0
   -3.0485    3.0581   25.5416 C   0  0  0  0  0  0  0  0  0  0  0  0
   -0.8106    1.2085   29.8827 C   0  0  0  0  0  0  0  0  0  0  0  0
   -1.2443    0.7518   31.0554 N   0  0  0  0  0  0  0  0  0  0  0  0
   -0.3115    1.0185   32.0188 N   0  0  0  0  0  0  0  0  0  0  0  0
    0.6865    1.6314   31.4351 C   0  0  0  0  0  0  0  0  0  0  0  0
    2.0979    2.1888   32.2574 S   0  0  0  0  0  0  0  0  0  0  0  0
    0.4260    1.7642   30.0940 N   0  0  0  0  0  0  0  0  0  0  0  0
    1.2041    2.4743   29.1279 C   0  0  0  0  0  0  0  0  0  0  0  0
    1.0181    3.0280   25.9293 N   0  0  0  0  0  0  0  0  0  0  0  0
    0.6380    4.3076   25.8109 C   0  0  0  0  0  0  0  0  0  0  0  0
   -0.4480    4.5061   25.0215 O   0  0  0  0  0  0  0  0  0  0  0  0
   -1.6526    8.5843   28.1584 H   0  0  0  0  0  0  0  0  0  0  0  0
   -1.3875    8.5837   26.4068 H   0  0  0  0  0  0  0  0  0  0  0  0
   -0.1189    9.1779   27.4972 H   0  0  0  0  0  0  0  0  0  0  0  0
   -1.1480    6.2945   27.3867 H   0  0  0  0  0  0  0  0  0  0  0  0
    0.1073    6.8793   28.4701 H   0  0  0  0  0  0  0  0  0  0  0  0
    0.3081    6.9664   25.4000 H   0  0  0  0  0  0  0  0  0  0  0  0
    1.5604    7.4605   26.5180 H   0  0  0  0  0  0  0  0  0  0  0  0
    2.9452    5.7534   27.6856 H   0  0  0  0  0  0  0  0  0  0  0  0
    0.6501    1.3014   27.4140 H   0  0  0  0  0  0  0  0  0  0  0  0
    3.2429    0.3929   27.3955 H   0  0  0  0  0  0  0  0  0  0  0  0
    2.8669    0.4892   29.1235 H   0  0  0  0  0  0  0  0  0  0  0  0
    1.4890   -1.0831   26.9954 H   0  0  0  0  0  0  0  0  0  0  0  0
    0.0455   -0.9098   30.4493 H   0  0  0  0  0  0  0  0  0  0  0  0
   -1.2551   -3.5889   30.1636 H   0  0  0  0  0  0  0  0  0  0  0  0
   -1.5092   -2.3502   31.3529 H   0  0  0  0  0  0  0  0  0  0  0  0
    0.9085   -2.7340   32.1555 H   0  0  0  0  0  0  0  0  0  0  0  0
   -0.3626   -3.8814   32.5025 H   0  0  0  0  0  0  0  0  0  0  0  0
    1.9607   -4.2550   30.5784 H   0  0  0  0  0  0  0  0  0  0  0  0
    2.0395   -5.0300   32.9509 H   0  0  0  0  0  0  0  0  0  0  0  0
    0.6077   -6.0406   32.6344 H   0  0  0  0  0  0  0  0  0  0  0  0
    2.0945   -6.3396   31.7738 H   0  0  0  0  0  0  0  0  0  0  0  0
    0.4638   -4.9648   29.2504 H   0  0  0  0  0  0  0  0  0  0  0  0
   -1.3970   -2.3778   28.1667 H   0  0  0  0  0  0  0  0  0  0  0  0
   -2.2468   -1.4742   29.3948 H   0  0  0  0  0  0  0  0  0  0  0  0
   -2.2212   -0.4802   27.2524 H   0  0  0  0  0  0  0  0  0  0  0  0
   -0.5441   -0.2389   27.2430 H   0  0  0  0  0  0  0  0  0  0  0  0
   -2.5955    0.9803   29.0973 H   0  0  0  0  0  0  0  0  0  0  0  0
   -2.0202    3.1388   28.1654 H   0  0  0  0  0  0  0  0  0  0  0  0
   -0.9125    2.3936   27.0723 H   0  0  0  0  0  0  0  0  0  0  0  0
   -3.8848    1.8421   27.0626 H   0  0  0  0  0  0  0  0  0  0  0  0
   -2.7333    1.0334   26.0242 H   0  0  0  0  0  0  0  0  0  0  0  0
   -4.0809    3.1298   25.1887 H   0  0  0  0  0  0  0  0  0  0  0  0
   -2.4301    2.8344   24.6688 H   0  0  0  0  0  0  0  0  0  0  0  0
   -2.7545    4.0252   25.9440 H   0  0  0  0  0  0  0  0  0  0  0  0
    2.1708    3.4219   31.7391 H   0  0  0  0  0  0  0  0  0  0  0  0
    2.1260    2.8251   29.6016 H   0  0  0  0  0  0  0  0  0  0  0  0
    0.6112    3.3730   28.9082 H   0  0  0  0  0  0  0  0  0  0  0  0
   -0.5362    3.6358   24.6034 H   0  0  0  0  0  0  0  0  0  0  0  0
  1  2  1  0
  2  3  1  0
  3  4  1  0
  4  5  2  0
  5  6  1  0
  6  7  2  0
  7  8  1  0
  8  9  1  0
  9 10  1  0
 10 11  1  0
 11 12  2  0
 11 13  2  0
 11 14  1  0
 14 15  1  0
 15 16  1  0
 16 17  1  0
 17 18  1  0
 17 19  1  0
 14 20  1  0
 20 21  1  0
 21 22  1  0
 22 23  1  0
 23 24  1  0
 24 25  1  0
 22 26  1  0
 26 27  2  0
 27 28  1  0
 28 29  2  0
 29 30  1  0
 29 31  1  0
 31 32  1  0
  7 33  1  0
 33 34  2  0
 34 35  1  0
 34  4  1  0
 32  8  1  0
 31 26  1  0
  1 36  1  0
  1 37  1  0
  1 38  1  0
  2 39  1  0
  2 40  1  0
  3 41  1  0
  3 42  1  0
  5 43  1  0
  8 44  1  0
  9 45  1  0
  9 46  1  0
 10 47  1  0
 14 48  1  0
 15 49  1  0
 15 50  1  0
 16 51  1  0
 16 52  1  0
 17 53  1  0
 18 54  1  0
 18 55  1  0
 18 56  1  0
 19 57  1  0
 20 58  1  0
 20 59  1  0
 21 60  1  0
 21 61  1  0
 22 62  1  0
 23 63  1  0
 23 64  1  0
 24 65  1  0
 24 66  1  0
 25 67  1  0
 25 68  1  0
 25 69  1  0
 30 70  1  0
 32 71  1  0
 32 72  1  0
 35 73  1  0
M  END
>  <Energy>  (815) 
-49.564639116160158

>  <compound_id>  (815) 
2898

>  <target_id>  (815) 
1

>  <reference_id>  (815) 
188

>  <inspiration_ids>  (815) 
[188, 44]

>  <energy_score>  (815) 
-124.6909991705318

>  <distance_score>  (815) 
2.40737845393697

>  <path>  (815) 
/opt/xchem-fragalysis-2/maxwin/BulkDock/SCRATCH/505736/C2898-P188/C2898-P188.minimised.mol

>  <scratch_subdir>  (815) 
/opt/xchem-fragalysis-2/maxwin/BulkDock/SCRATCH/505736/C2898-P188

>  <fragmenstein_runtime>  (815) 
6.349601984024048

>  <fragmenstein_outcome>  (815) 
too moved

>  <fragmenstein_mode>  (815) 
expansion

>  <fragmenstein_error>  (815) 


$$$$
C2898-P44
     RDKit          3D

 73 75  0  0  0  0  0  0  0  0999 V2000
   -1.2467    8.3930   27.5970 C   0  0  0  0  0  0  0  0  0  0  0  0
   -0.5863    8.1741   26.2424 C   0  0  0  0  0  0  0  0  0  0  0  0
   -0.7664    6.7498   25.6963 C   0  0  0  0  0  0  0  0  0  0  0  0
   -0.0036    5.6263   26.3471 C   0  0  0  0  0  0  0  0  0  0  0  0
    1.0245    5.8210   27.2402 C   0  0  0  0  0  0  0  0  0  0  0  0
    1.7595    4.8451   27.7953 N   0  0  0  0  0  0  0  0  0  0  0  0
    1.4592    3.5851   27.4433 C   0  0  0  0  0  0  0  0  0  0  0  0
    1.8163    2.5680   28.5145 C   0  0  0  0  0  0  0  0  0  0  0  0
    2.3650    1.2047   28.0697 C   0  0  0  0  0  0  0  0  0  0  0  0
    1.3656    0.1176   27.9751 N   0  0  0  0  0  0  0  0  0  0  0  0
    1.6724   -1.3435   28.7917 S   0  0  0  0  0  0  0  0  0  0  0  0
    2.2127   -2.2557   27.8094 O   0  0  0  0  0  0  0  0  0  0  0  0
    2.4147   -1.0277   29.9916 O   0  0  0  0  0  0  0  0  0  0  0  0
    0.0182   -1.8592   29.2489 C   0  0  0  0  0  0  0  0  0  0  0  0
   -0.1079   -3.3282   29.5756 C   0  0  0  0  0  0  0  0  0  0  0  0
    0.5809   -3.7390   30.8590 C   0  0  0  0  0  0  0  0  0  0  0  0
    0.8720   -5.2302   30.7889 C   0  0  0  0  0  0  0  0  0  0  0  0
    1.5174   -5.7012   32.0674 C   0  0  0  0  0  0  0  0  0  0  0  0
   -0.3257   -5.9807   30.5975 O   0  0  0  0  0  0  0  0  0  0  0  0
   -0.9752   -1.5313   28.1498 C   0  0  0  0  0  0  0  0  0  0  0  0
   -2.1291   -0.7191   28.6526 C   0  0  0  0  0  0  0  0  0  0  0  0
   -1.8408    0.7594   28.8835 C   0  0  0  0  0  0  0  0  0  0  0  0
   -1.5272    1.5375   27.6105 C   0  0  0  0  0  0  0  0  0  0  0  0
   -2.4637    1.4145   26.4083 C   0  0  0  0  0  0  0  0  0  0  0  0
   -3.6282    2.3841   26.4463 C   0  0  0  0  0  0  0  0  0  0  0  0
   -0.9289    0.8878   30.1050 C   0  0  0  0  0  0  0  0  0  0  0  0
   -1.2506    0.3201   31.2644 N   0  0  0  0  0  0  0  0  0  0  0  0
   -0.2300    0.5010   32.1550 N   0  0  0  0  0  0  0  0  0  0  0  0
    0.6738    1.2380   31.5633 C   0  0  0  0  0  0  0  0  0  0  0  0
    2.1557    1.7504   32.2813 S   0  0  0  0  0  0  0  0  0  0  0  0
    0.2504    1.5842   30.3041 N   0  0  0  0  0  0  0  0  0  0  0  0
    0.7194    2.7243   29.5734 C   0  0  0  0  0  0  0  0  0  0  0  0
    0.5535    3.2768   26.5014 N   0  0  0  0  0  0  0  0  0  0  0  0
   -0.1751    4.3023   26.0054 C   0  0  0  0  0  0  0  0  0  0  0  0
   -1.1563    3.9278   25.1296 O   0  0  0  0  0  0  0  0  0  0  0  0
   -0.8596    7.7123   28.3599 H   0  0  0  0  0  0  0  0  0  0  0  0
   -2.3292    8.2514   27.5293 H   0  0  0  0  0  0  0  0  0  0  0  0
   -1.0677    9.4175   27.9388 H   0  0  0  0  0  0  0  0  0  0  0  0
   -1.0451    8.8725   25.5311 H   0  0  0  0  0  0  0  0  0  0  0  0
    0.4740    8.4447   26.2927 H   0  0  0  0  0  0  0  0  0  0  0  0
   -1.8362    6.5218   25.7141 H   0  0  0  0  0  0  0  0  0  0  0  0
   -0.4641    6.7670   24.6406 H   0  0  0  0  0  0  0  0  0  0  0  0
    1.3218    6.8140   27.5655 H   0  0  0  0  0  0  0  0  0  0  0  0
    2.7117    3.0152   28.9802 H   0  0  0  0  0  0  0  0  0  0  0  0
    2.8613    1.2957   27.0955 H   0  0  0  0  0  0  0  0  0  0  0  0
    3.1524    0.9169   28.7750 H   0  0  0  0  0  0  0  0  0  0  0  0
    1.1861   -0.1079   26.9899 H   0  0  0  0  0  0  0  0  0  0  0  0
   -0.1821   -1.3534   30.1811 H   0  0  0  0  0  0  0  0  0  0  0  0
    0.2891   -3.9039   28.7310 H   0  0  0  0  0  0  0  0  0  0  0  0
   -1.1677   -3.5949   29.6705 H   0  0  0  0  0  0  0  0  0  0  0  0
    1.5198   -3.2010   31.0143 H   0  0  0  0  0  0  0  0  0  0  0  0
   -0.0768   -3.5072   31.7057 H   0  0  0  0  0  0  0  0  0  0  0  0
    1.5482   -5.4558   29.9553 H   0  0  0  0  0  0  0  0  0  0  0  0
    0.8740   -5.5022   32.9320 H   0  0  0  0  0  0  0  0  0  0  0  0
    1.6711   -6.7837   32.0455 H   0  0  0  0  0  0  0  0  0  0  0  0
    2.4833   -5.2147   32.2346 H   0  0  0  0  0  0  0  0  0  0  0  0
   -0.5358   -5.9218   29.6466 H   0  0  0  0  0  0  0  0  0  0  0  0
   -1.3860   -2.4594   27.7532 H   0  0  0  0  0  0  0  0  0  0  0  0
   -0.5490   -1.0483   27.2767 H   0  0  0  0  0  0  0  0  0  0  0  0
   -2.9135   -0.8435   27.9109 H   0  0  0  0  0  0  0  0  0  0  0  0
   -2.4984   -1.1735   29.5787 H   0  0  0  0  0  0  0  0  0  0  0  0
   -2.7838    1.1746   29.2216 H   0  0  0  0  0  0  0  0  0  0  0  0
   -0.5479    1.2426   27.2524 H   0  0  0  0  0  0  0  0  0  0  0  0
   -1.4865    2.5962   27.8687 H   0  0  0  0  0  0  0  0  0  0  0  0
   -1.8841    1.6655   25.5180 H   0  0  0  0  0  0  0  0  0  0  0  0
   -2.7946    0.3919   26.2411 H   0  0  0  0  0  0  0  0  0  0  0  0
   -3.3098    3.3728   26.7860 H   0  0  0  0  0  0  0  0  0  0  0  0
   -4.4190    2.0325   27.1004 H   0  0  0  0  0  0  0  0  0  0  0  0
   -4.0655    2.5090   25.4542 H   0  0  0  0  0  0  0  0  0  0  0  0
    2.0613    0.9882   33.3801 H   0  0  0  0  0  0  0  0  0  0  0  0
   -0.1705    3.2330   29.1934 H   0  0  0  0  0  0  0  0  0  0  0  0
    1.0725    3.4580   30.3137 H   0  0  0  0  0  0  0  0  0  0  0  0
   -1.8914    4.5567   25.2081 H   0  0  0  0  0  0  0  0  0  0  0  0
  1  2  1  0
  2  3  1  0
  3  4  1  0
  4  5  2  0
  5  6  1  0
  6  7  2  0
  7  8  1  0
  8  9  1  0
  9 10  1  0
 10 11  1  0
 11 12  2  0
 11 13  2  0
 11 14  1  0
 14 15  1  0
 15 16  1  0
 16 17  1  0
 17 18  1  0
 17 19  1  0
 14 20  1  0
 20 21  1  0
 21 22  1  0
 22 23  1  0
 23 24  1  0
 24 25  1  0
 22 26  1  0
 26 27  2  0
 27 28  1  0
 28 29  2  0
 29 30  1  0
 29 31  1  0
 31 32  1  0
  7 33  1  0
 33 34  2  0
 34 35  1  0
 34  4  1  0
 32  8  1  0
 31 26  1  0
  1 36  1  0
  1 37  1  0
  1 38  1  0
  2 39  1  0
  2 40  1  0
  3 41  1  0
  3 42  1  0
  5 43  1  0
  8 44  1  0
  9 45  1  0
  9 46  1  0
 10 47  1  0
 14 48  1  0
 15 49  1  0
 15 50  1  0
 16 51  1  0
 16 52  1  0
 17 53  1  0
 18 54  1  0
 18 55  1  0
 18 56  1  0
 19 57  1  0
 20 58  1  0
 20 59  1  0
 21 60  1  0
 21 61  1  0
 22 62  1  0
 23 63  1  0
 23 64  1  0
 24 65  1  0
 24 66  1  0
 25 67  1  0
 25 68  1  0
 25 69  1  0
 30 70  1  0
 32 71  1  0
 32 72  1  0
 35 73  1  0
M  END
>  <Energy>  (816) 
-56.517600575550162

>  <compound_id>  (816) 
2898

>  <target_id>  (816) 
1

>  <reference_id>  (816) 
44

>  <inspiration_ids>  (816) 
[188, 44]

>  <energy_score>  (816) 
-131.6439606299254

>  <distance_score>  (816) 
2.7129978657562983

>  <path>  (816) 
/opt/xchem-fragalysis-2/maxwin/BulkDock/SCRATCH/505736/C2898-P44/C2898-P44.minimised.mol

>  <scratch_subdir>  (816) 
/opt/xchem-fragalysis-2/maxwin/BulkDock/SCRATCH/505736/C2898-P44

>  <fragmenstein_runtime>  (816) 
7.1651387214660645

>  <fragmenstein_outcome>  (816) 
too moved

>  <fragmenstein_mode>  (816) 
expansion

>  <fragmenstein_error>  (816) 


$$$$
C2899-P188
     RDKit          3D

 53 56  0  0  0  0  0  0  0  0999 V2000
   -2.1755   -3.1084   31.5015 O   0  0  0  0  0  0  0  0  0  0  0  0
   -1.8432   -1.7334   31.8003 S   0  0  0  0  0  0  0  0  0  0  0  0
   -2.8013   -0.8506   32.4324 O   0  0  0  0  0  0  0  0  0  0  0  0
   -0.5327   -1.6760   32.8167 N   0  0  0  0  0  0  0  0  0  0  0  0
    0.7086   -2.3823   32.6097 C   0  0  0  0  0  0  0  0  0  0  0  0
    0.5893   -3.8793   32.8677 C   0  0  0  0  0  0  0  0  0  0  0  0
    1.7752   -4.6675   32.2867 C   0  0  0  0  0  0  0  0  0  0  0  0
    2.2396   -4.0044   31.0822 N   0  0  0  0  0  0  0  0  0  0  0  0
    1.1421   -4.2476   30.1388 C   0  0  0  0  0  0  0  0  0  0  0  0
    1.6855   -3.4423   28.5548 S   0  0  0  0  0  0  0  0  0  0  0  0
    2.2635   -1.6679   29.1647 C   0  0  0  0  0  0  0  0  0  0  0  0
    2.6826   -0.3923   28.3072 C   0  0  0  0  0  0  0  0  0  0  0  0
    3.9256    0.2474   28.5176 C   0  0  0  0  0  0  0  0  0  0  0  0
    4.1660    1.5467   28.0468 C   0  0  0  0  0  0  0  0  0  0  0  0
    3.2540    2.2918   27.3998 N   0  0  0  0  0  0  0  0  0  0  0  0
    2.0745    1.6815   27.1753 C   0  0  0  0  0  0  0  0  0  0  0  0
    1.7720    0.3706   27.5760 C   0  0  0  0  0  0  0  0  0  0  0  0
    0.9292   -5.7627   30.4055 C   0  0  0  0  0  0  0  0  0  0  0  0
   -0.4864   -6.2756   30.5884 C   0  0  0  0  0  0  0  0  0  0  0  0
   -0.3812   -7.2993   31.6260 N   0  0  0  0  0  0  0  0  0  0  0  0
    0.5021   -6.6735   32.5399 N   0  0  0  0  0  0  0  0  0  0  0  0
    1.5042   -6.0059   31.7760 N   0  0  0  0  0  0  0  0  0  0  0  0
   -1.3700   -0.9229   30.2966 C   0  0  0  0  0  0  0  0  0  0  0  0
   -1.6191   -1.5535   29.0781 C   0  0  0  0  0  0  0  0  0  0  0  0
   -1.7047   -0.7842   27.9196 C   0  0  0  0  0  0  0  0  0  0  0  0
   -1.5025    0.5861   27.9741 C   0  0  0  0  0  0  0  0  0  0  0  0
   -1.7384    1.3405   26.8647 O   0  0  0  0  0  0  0  0  0  0  0  0
   -1.0747    1.1796   29.1508 C   0  0  0  0  0  0  0  0  0  0  0  0
   -1.0199    0.4260   30.3283 C   0  0  0  0  0  0  0  0  0  0  0  0
   -0.7917   -1.4200   33.7695 H   0  0  0  0  0  0  0  0  0  0  0  0
    1.0547   -2.0934   31.6258 H   0  0  0  0  0  0  0  0  0  0  0  0
    1.4497   -1.9679   33.3048 H   0  0  0  0  0  0  0  0  0  0  0  0
   -0.3683   -4.2451   32.5018 H   0  0  0  0  0  0  0  0  0  0  0  0
    0.5434   -4.0545   33.9514 H   0  0  0  0  0  0  0  0  0  0  0  0
    2.5848   -4.6995   33.0247 H   0  0  0  0  0  0  0  0  0  0  0  0
    3.0531   -4.5178   30.7479 H   0  0  0  0  0  0  0  0  0  0  0  0
    0.2263   -3.7068   30.3796 H   0  0  0  0  0  0  0  0  0  0  0  0
    1.4451   -1.3070   29.7873 H   0  0  0  0  0  0  0  0  0  0  0  0
    3.1154   -1.8787   29.8197 H   0  0  0  0  0  0  0  0  0  0  0  0
    4.7004   -0.2458   29.0985 H   0  0  0  0  0  0  0  0  0  0  0  0
    5.1226    2.0301   28.2222 H   0  0  0  0  0  0  0  0  0  0  0  0
    1.3361    2.2766   26.6446 H   0  0  0  0  0  0  0  0  0  0  0  0
    0.8085   -0.0522   27.3368 H   0  0  0  0  0  0  0  0  0  0  0  0
    1.4805   -6.3647   29.6763 H   0  0  0  0  0  0  0  0  0  0  0  0
   -0.8889   -6.7226   29.6823 H   0  0  0  0  0  0  0  0  0  0  0  0
   -1.1497   -5.4853   30.9396 H   0  0  0  0  0  0  0  0  0  0  0  0
    0.0481   -8.1364   31.2260 H   0  0  0  0  0  0  0  0  0  0  0  0
    0.8541   -7.2953   33.2739 H   0  0  0  0  0  0  0  0  0  0  0  0
   -1.8850   -2.6059   29.0210 H   0  0  0  0  0  0  0  0  0  0  0  0
   -2.0335   -1.2453   26.9961 H   0  0  0  0  0  0  0  0  0  0  0  0
   -2.2238    2.1346   27.1651 H   0  0  0  0  0  0  0  0  0  0  0  0
   -0.8241    2.2362   29.1534 H   0  0  0  0  0  0  0  0  0  0  0  0
   -0.7832    0.9075   31.2724 H   0  0  0  0  0  0  0  0  0  0  0  0
  1  2  2  0
  2  3  2  0
  2  4  1  0
  4  5  1  0
  5  6  1  0
  6  7  1  0
  7  8  1  0
  8  9  1  0
  9 10  1  0
 10 11  1  0
 11 12  1  0
 12 13  2  0
 13 14  1  0
 14 15  2  0
 15 16  1  0
 16 17  2  0
  9 18  1  0
 18 19  1  0
 19 20  1  0
 20 21  1  0
 21 22  1  0
  2 23  1  0
 23 24  2  0
 24 25  1  0
 25 26  2  0
 26 27  1  0
 26 28  1  0
 28 29  2  0
 22  7  1  0
 29 23  1  0
 17 12  1  0
 22 18  1  0
  4 30  1  0
  5 31  1  0
  5 32  1  0
  6 33  1  0
  6 34  1  0
  7 35  1  0
  8 36  1  0
  9 37  1  0
 11 38  1  0
 11 39  1  0
 13 40  1  0
 14 41  1  0
 16 42  1  0
 17 43  1  0
 18 44  1  0
 19 45  1  0
 19 46  1  0
 20 47  1  0
 21 48  1  0
 24 49  1  0
 25 50  1  0
 27 51  1  0
 28 52  1  0
 29 53  1  0
M  END
>  <Energy>  (817) 
54.830814254424396

>  <compound_id>  (817) 
2899

>  <target_id>  (817) 
1

>  <reference_id>  (817) 
188

>  <inspiration_ids>  (817) 
[188, 53]

>  <energy_score>  (817) 
-42.22550402476088

>  <distance_score>  (817) 
2.9949332679722946

>  <path>  (817) 
/opt/xchem-fragalysis-2/maxwin/BulkDock/SCRATCH/505736/C2899-P188/C2899-P188.minimised.mol

>  <scratch_subdir>  (817) 
/opt/xchem-fragalysis-2/maxwin/BulkDock/SCRATCH/505736/C2899-P188

>  <fragmenstein_runtime>  (817) 
7.093046188354492

>  <fragmenstein_outcome>  (817) 
too moved

>  <fragmenstein_mode>  (817) 
expansion

>  <fragmenstein_error>  (817) 


$$$$
C2899-P53
     RDKit          3D

 53 56  0  0  0  0  0  0  0  0999 V2000
   -2.4930   -2.8445   31.4316 O   0  0  0  0  0  0  0  0  0  0  0  0
   -1.5715   -1.7282   31.5196 S   0  0  0  0  0  0  0  0  0  0  0  0
   -1.7006   -0.7239   32.5539 O   0  0  0  0  0  0  0  0  0  0  0  0
   -0.0180   -2.3642   31.6760 N   0  0  0  0  0  0  0  0  0  0  0  0
    0.1170   -3.2294   32.8519 C   0  0  0  0  0  0  0  0  0  0  0  0
    1.5135   -3.7977   33.0191 C   0  0  0  0  0  0  0  0  0  0  0  0
    2.0142   -4.9317   32.1404 C   0  0  0  0  0  0  0  0  0  0  0  0
    2.4490   -4.4463   30.8254 N   0  0  0  0  0  0  0  0  0  0  0  0
    1.4134   -4.8523   29.8510 C   0  0  0  0  0  0  0  0  0  0  0  0
    0.9202   -3.3247   28.8567 S   0  0  0  0  0  0  0  0  0  0  0  0
    2.4374   -2.1019   28.9529 C   0  0  0  0  0  0  0  0  0  0  0  0
    2.4686   -0.5985   28.4063 C   0  0  0  0  0  0  0  0  0  0  0  0
    3.5849    0.2211   28.7283 C   0  0  0  0  0  0  0  0  0  0  0  0
    3.6749    1.5484   28.2912 C   0  0  0  0  0  0  0  0  0  0  0  0
    2.7311    2.1475   27.5512 N   0  0  0  0  0  0  0  0  0  0  0  0
    1.6758    1.3706   27.2249 C   0  0  0  0  0  0  0  0  0  0  0  0
    1.5240    0.0211   27.5957 C   0  0  0  0  0  0  0  0  0  0  0  0
    0.3283   -5.5408   30.7074 C   0  0  0  0  0  0  0  0  0  0  0  0
   -0.3096   -6.8990   30.4961 C   0  0  0  0  0  0  0  0  0  0  0  0
   -0.6623   -7.3345   31.8766 N   0  0  0  0  0  0  0  0  0  0  0  0
    0.2703   -6.5936   32.7250 N   0  0  0  0  0  0  0  0  0  0  0  0
    1.1596   -6.0213   31.8076 N   0  0  0  0  0  0  0  0  0  0  0  0
   -1.5136   -0.8971   29.9639 C   0  0  0  0  0  0  0  0  0  0  0  0
   -1.9680   -1.5517   28.8264 C   0  0  0  0  0  0  0  0  0  0  0  0
   -2.1065   -0.8656   27.6229 C   0  0  0  0  0  0  0  0  0  0  0  0
   -1.8207    0.4904   27.5764 C   0  0  0  0  0  0  0  0  0  0  0  0
   -1.9735    1.1960   26.4225 O   0  0  0  0  0  0  0  0  0  0  0  0
   -1.3297    1.1462   28.6983 C   0  0  0  0  0  0  0  0  0  0  0  0
   -1.1449    0.4419   29.8935 C   0  0  0  0  0  0  0  0  0  0  0  0
    0.6732   -1.6152   31.6456 H   0  0  0  0  0  0  0  0  0  0  0  0
   -0.0678   -2.6025   33.7354 H   0  0  0  0  0  0  0  0  0  0  0  0
   -0.6437   -4.0123   32.8810 H   0  0  0  0  0  0  0  0  0  0  0  0
    1.5618   -4.1685   34.0538 H   0  0  0  0  0  0  0  0  0  0  0  0
    2.2387   -2.9722   32.9829 H   0  0  0  0  0  0  0  0  0  0  0  0
    2.9044   -5.3337   32.6422 H   0  0  0  0  0  0  0  0  0  0  0  0
    3.2946   -4.9538   30.5831 H   0  0  0  0  0  0  0  0  0  0  0  0
    1.8521   -5.5631   29.1422 H   0  0  0  0  0  0  0  0  0  0  0  0
    2.6570   -2.0106   30.0212 H   0  0  0  0  0  0  0  0  0  0  0  0
    3.2587   -2.6289   28.4555 H   0  0  0  0  0  0  0  0  0  0  0  0
    4.3911   -0.1805   29.3371 H   0  0  0  0  0  0  0  0  0  0  0  0
    4.5298    2.1657   28.5496 H   0  0  0  0  0  0  0  0  0  0  0  0
    0.9128    1.8591   26.6226 H   0  0  0  0  0  0  0  0  0  0  0  0
    0.6629   -0.5377   27.2479 H   0  0  0  0  0  0  0  0  0  0  0  0
   -0.4520   -4.8298   30.9856 H   0  0  0  0  0  0  0  0  0  0  0  0
   -1.1953   -6.8818   29.8632 H   0  0  0  0  0  0  0  0  0  0  0  0
    0.3895   -7.6309   30.0708 H   0  0  0  0  0  0  0  0  0  0  0  0
   -1.6093   -7.0164   32.1042 H   0  0  0  0  0  0  0  0  0  0  0  0
    0.7233   -7.2329   33.3900 H   0  0  0  0  0  0  0  0  0  0  0  0
   -2.2255   -2.6018   28.8773 H   0  0  0  0  0  0  0  0  0  0  0  0
   -2.4454   -1.4049   26.7425 H   0  0  0  0  0  0  0  0  0  0  0  0
   -2.4531    0.6223   25.7989 H   0  0  0  0  0  0  0  0  0  0  0  0
   -1.0882    2.2055   28.6391 H   0  0  0  0  0  0  0  0  0  0  0  0
   -0.7521    0.9552   30.7661 H   0  0  0  0  0  0  0  0  0  0  0  0
  1  2  2  0
  2  3  2  0
  2  4  1  0
  4  5  1  0
  5  6  1  0
  6  7  1  0
  7  8  1  0
  8  9  1  0
  9 10  1  0
 10 11  1  0
 11 12  1  0
 12 13  2  0
 13 14  1  0
 14 15  2  0
 15 16  1  0
 16 17  2  0
  9 18  1  0
 18 19  1  0
 19 20  1  0
 20 21  1  0
 21 22  1  0
  2 23  1  0
 23 24  2  0
 24 25  1  0
 25 26  2  0
 26 27  1  0
 26 28  1  0
 28 29  2  0
 22  7  1  0
 29 23  1  0
 17 12  1  0
 22 18  1  0
  4 30  1  0
  5 31  1  0
  5 32  1  0
  6 33  1  0
  6 34  1  0
  7 35  1  0
  8 36  1  0
  9 37  1  0
 11 38  1  0
 11 39  1  0
 13 40  1  0
 14 41  1  0
 16 42  1  0
 17 43  1  0
 18 44  1  0
 19 45  1  0
 19 46  1  0
 20 47  1  0
 21 48  1  0
 24 49  1  0
 25 50  1  0
 27 51  1  0
 28 52  1  0
 29 53  1  0
M  END
>  <Energy>  (818) 
49.155027614513656

>  <compound_id>  (818) 
2899

>  <target_id>  (818) 
1

>  <reference_id>  (818) 
53

>  <inspiration_ids>  (818) 
[188, 53]

>  <energy_score>  (818) 
-47.90129066467546

>  <distance_score>  (818) 
2.979744297395254

>  <path>  (818) 
/opt/xchem-fragalysis-2/maxwin/BulkDock/SCRATCH/505736/C2899-P53/C2899-P53.minimised.mol

>  <scratch_subdir>  (818) 
/opt/xchem-fragalysis-2/maxwin/BulkDock/SCRATCH/505736/C2899-P53

>  <fragmenstein_runtime>  (818) 
6.116320610046387

>  <fragmenstein_outcome>  (818) 
too moved

>  <fragmenstein_mode>  (818) 
expansion

>  <fragmenstein_error>  (818) 


$$$$
C2899-P188
     RDKit          2D

  0  0  0  0  0  0  0  0  0  0999 V2000
M  END
>  <compound_id>  (819) 
2899

>  <target_id>  (819) 
1

>  <reference_id>  (819) 
188

>  <inspiration_ids>  (819) 
[188, 56]

>  <energy_score>  (819) 
nan

>  <distance_score>  (819) 
nan

>  <path>  (819) 
/opt/xchem-fragalysis-2/maxwin/BulkDock/SCRATCH/505736/C2899-P188/C2899-P188.minimised.mol

>  <scratch_subdir>  (819) 
/opt/xchem-fragalysis-2/maxwin/BulkDock/SCRATCH/505736/C2899-P188

>  <fragmenstein_runtime>  (819) 
0.4719269275665283

>  <fragmenstein_outcome>  (819) 
too distant

>  <fragmenstein_mode>  (819) 
expansion

>  <fragmenstein_error>  (819) 
DistanceError: hit1

$$$$
C2902-P188
     RDKit          3D

 62 64  0  0  0  0  0  0  0  0999 V2000
   -0.1275   -6.2357   36.2401 C   0  0  0  0  0  0  0  0  0  0  0  0
   -0.4262   -7.5247   35.4838 C   0  0  0  0  0  0  0  0  0  0  0  0
   -1.6351   -7.3986   34.5525 C   0  0  0  0  0  0  0  0  0  0  0  0
   -1.2795   -6.9251   33.2012 C   0  0  0  0  0  0  0  0  0  0  0  0
   -1.1630   -5.6093   33.0730 N   0  0  0  0  0  0  0  0  0  0  0  0
   -0.5150   -5.1408   32.0196 N   0  0  0  0  0  0  0  0  0  0  0  0
    0.1925   -5.9802   31.2549 C   0  0  0  0  0  0  0  0  0  0  0  0
    1.5256   -5.4995   30.7438 C   0  0  0  0  0  0  0  0  0  0  0  0
    1.7499   -4.0789   30.9778 N   0  0  0  0  0  0  0  0  0  0  0  0
    1.7174   -3.4554   32.2135 C   0  0  0  0  0  0  0  0  0  0  0  0
    2.1860   -4.2405   33.6814 S   0  0  0  0  0  0  0  0  0  0  0  0
    0.9809   -2.3326   31.9513 C   0  0  0  0  0  0  0  0  0  0  0  0
    1.2327   -1.9775   30.6137 C   0  0  0  0  0  0  0  0  0  0  0  0
    1.7515   -3.1022   30.0007 C   0  0  0  0  0  0  0  0  0  0  0  0
    2.1059   -3.3616   28.5839 C   0  0  0  0  0  0  0  0  0  0  0  0
    3.5719   -3.7506   28.3826 C   0  0  0  0  0  0  0  0  0  0  0  0
    4.5362   -2.6151   28.6982 C   0  0  0  0  0  0  0  0  0  0  0  0
    0.7570   -0.6755   30.0938 C   0  0  0  0  0  0  0  0  0  0  0  0
   -0.7564   -0.5654   30.2215 C   0  0  0  0  0  0  0  0  0  0  0  0
   -1.4449   -1.1188   28.9801 C   0  0  0  0  0  0  0  0  0  0  0  0
   -1.3033   -0.3064   27.6953 C   0  0  0  0  0  0  0  0  0  0  0  0
   -1.6564    1.1776   27.7940 C   0  0  0  0  0  0  0  0  0  0  0  0
   -0.4667    2.0694   28.0864 C   0  0  0  0  0  0  0  0  0  0  0  0
   -2.2027    1.5977   26.5445 O   0  0  0  0  0  0  0  0  0  0  0  0
   -1.4079   -1.3750   31.7358 S   0  0  0  0  0  0  0  0  0  0  0  0
   -2.2264   -0.4226   32.4511 O   0  0  0  0  0  0  0  0  0  0  0  0
   -1.9783   -2.6606   31.4081 O   0  0  0  0  0  0  0  0  0  0  0  0
   -0.0059   -1.6723   32.6848 N   0  0  0  0  0  0  0  0  0  0  0  0
   -0.0746   -7.2849   31.2029 N   0  0  0  0  0  0  0  0  0  0  0  0
   -0.9227   -7.7081   32.1415 C   0  0  0  0  0  0  0  0  0  0  0  0
   -1.4509   -8.9233   31.8758 O   0  0  0  0  0  0  0  0  0  0  0  0
    0.0556   -5.4021   35.5594 H   0  0  0  0  0  0  0  0  0  0  0  0
   -0.9633   -5.9615   36.8915 H   0  0  0  0  0  0  0  0  0  0  0  0
    0.7590   -6.3647   36.8690 H   0  0  0  0  0  0  0  0  0  0  0  0
   -0.6378   -8.2955   36.2295 H   0  0  0  0  0  0  0  0  0  0  0  0
    0.4708   -7.8308   34.9377 H   0  0  0  0  0  0  0  0  0  0  0  0
   -2.3177   -6.6851   35.0130 H   0  0  0  0  0  0  0  0  0  0  0  0
   -2.2108   -8.3193   34.4925 H   0  0  0  0  0  0  0  0  0  0  0  0
    2.3142   -5.9993   31.3009 H   0  0  0  0  0  0  0  0  0  0  0  0
    1.6313   -5.7337   29.6837 H   0  0  0  0  0  0  0  0  0  0  0  0
    1.7973   -3.2870   34.5418 H   0  0  0  0  0  0  0  0  0  0  0  0
    1.4607   -4.1477   28.1800 H   0  0  0  0  0  0  0  0  0  0  0  0
    1.8942   -2.4679   27.9860 H   0  0  0  0  0  0  0  0  0  0  0  0
    3.7123   -4.0422   27.3347 H   0  0  0  0  0  0  0  0  0  0  0  0
    3.8317   -4.6243   28.9913 H   0  0  0  0  0  0  0  0  0  0  0  0
    5.5630   -2.9211   28.4739 H   0  0  0  0  0  0  0  0  0  0  0  0
    4.3084   -1.7287   28.0974 H   0  0  0  0  0  0  0  0  0  0  0  0
    4.4943   -2.3358   29.7554 H   0  0  0  0  0  0  0  0  0  0  0  0
    1.1088   -0.5014   29.0730 H   0  0  0  0  0  0  0  0  0  0  0  0
    1.2196    0.1162   30.6996 H   0  0  0  0  0  0  0  0  0  0  0  0
   -1.0263    0.4857   30.3618 H   0  0  0  0  0  0  0  0  0  0  0  0
   -1.1331   -2.1530   28.7889 H   0  0  0  0  0  0  0  0  0  0  0  0
   -2.4950   -1.1619   29.2024 H   0  0  0  0  0  0  0  0  0  0  0  0
   -0.2855   -0.4145   27.3113 H   0  0  0  0  0  0  0  0  0  0  0  0
   -1.9666   -0.7688   26.9592 H   0  0  0  0  0  0  0  0  0  0  0  0
   -2.4036    1.3434   28.5662 H   0  0  0  0  0  0  0  0  0  0  0  0
   -0.7753    3.1213   28.0859 H   0  0  0  0  0  0  0  0  0  0  0  0
    0.2934    1.9745   27.3025 H   0  0  0  0  0  0  0  0  0  0  0  0
    0.0055    1.8624   29.0469 H   0  0  0  0  0  0  0  0  0  0  0  0
   -2.8046    2.3430   26.7382 H   0  0  0  0  0  0  0  0  0  0  0  0
   -0.2951   -2.1730   33.5298 H   0  0  0  0  0  0  0  0  0  0  0  0
   -2.2757   -9.0215   32.3875 H   0  0  0  0  0  0  0  0  0  0  0  0
  1  2  1  0
  2  3  1  0
  3  4  1  0
  4  5  2  0
  5  6  1  0
  6  7  2  0
  7  8  1  0
  8  9  1  0
  9 10  1  0
 10 11  1  0
 10 12  2  0
 12 13  1  0
 13 14  2  0
 14 15  1  0
 15 16  1  0
 16 17  1  0
 13 18  1  0
 18 19  1  0
 19 20  1  0
 20 21  1  0
 21 22  1  0
 22 23  1  0
 22 24  1  0
 19 25  1  0
 25 26  2  0
 25 27  2  0
 25 28  1  0
  7 29  1  0
 29 30  2  0
 30 31  1  0
 30  4  1  0
 14  9  1  0
 28 12  1  0
  1 32  1  0
  1 33  1  0
  1 34  1  0
  2 35  1  0
  2 36  1  0
  3 37  1  0
  3 38  1  0
  8 39  1  0
  8 40  1  0
 11 41  1  0
 15 42  1  0
 15 43  1  0
 16 44  1  0
 16 45  1  0
 17 46  1  0
 17 47  1  0
 17 48  1  0
 18 49  1  0
 18 50  1  0
 19 51  1  0
 20 52  1  0
 20 53  1  0
 21 54  1  0
 21 55  1  0
 22 56  1  0
 23 57  1  0
 23 58  1  0
 23 59  1  0
 24 60  1  0
 28 61  1  0
 31 62  1  0
M  END
>  <Energy>  (820) 
34.268437080901464

>  <compound_id>  (820) 
2902

>  <target_id>  (820) 
1

>  <reference_id>  (820) 
188

>  <inspiration_ids>  (820) 
[188, 105]

>  <energy_score>  (820) 
4.496072671201404

>  <distance_score>  (820) 
2.342230457165757

>  <path>  (820) 
/opt/xchem-fragalysis-2/maxwin/BulkDock/SCRATCH/505736/C2902-P188/C2902-P188.minimised.mol

>  <scratch_subdir>  (820) 
/opt/xchem-fragalysis-2/maxwin/BulkDock/SCRATCH/505736/C2902-P188

>  <fragmenstein_runtime>  (820) 
9.38093090057373

>  <fragmenstein_outcome>  (820) 
too moved

>  <fragmenstein_mode>  (820) 
expansion

>  <fragmenstein_error>  (820) 


$$$$
C2902-P105
     RDKit          3D

 62 64  0  0  0  0  0  0  0  0999 V2000
    0.2023   -6.1060   36.6190 C   0  0  0  0  0  0  0  0  0  0  0  0
   -0.9871   -6.1317   35.6662 C   0  0  0  0  0  0  0  0  0  0  0  0
   -1.1099   -7.4453   34.8705 C   0  0  0  0  0  0  0  0  0  0  0  0
   -0.3786   -7.3780   33.5870 C   0  0  0  0  0  0  0  0  0  0  0  0
    0.9082   -7.0293   33.6916 N   0  0  0  0  0  0  0  0  0  0  0  0
    1.5614   -6.6386   32.6032 N   0  0  0  0  0  0  0  0  0  0  0  0
    0.9169   -6.6081   31.4287 C   0  0  0  0  0  0  0  0  0  0  0  0
    1.5806   -5.7841   30.3726 C   0  0  0  0  0  0  0  0  0  0  0  0
    1.0993   -4.4341   30.5289 N   0  0  0  0  0  0  0  0  0  0  0  0
   -0.0520   -3.9735   29.9856 C   0  0  0  0  0  0  0  0  0  0  0  0
   -0.1616   -3.7348   28.2924 S   0  0  0  0  0  0  0  0  0  0  0  0
   -0.5901   -3.1446   30.9149 C   0  0  0  0  0  0  0  0  0  0  0  0
    0.5807   -2.5043   31.4413 C   0  0  0  0  0  0  0  0  0  0  0  0
    1.6399   -3.3873   31.2412 C   0  0  0  0  0  0  0  0  0  0  0  0
    3.0889   -3.2724   31.5403 C   0  0  0  0  0  0  0  0  0  0  0  0
    3.3867   -3.5346   33.0164 C   0  0  0  0  0  0  0  0  0  0  0  0
    4.8729   -3.4129   33.3137 C   0  0  0  0  0  0  0  0  0  0  0  0
    0.6001   -1.0391   31.8068 C   0  0  0  0  0  0  0  0  0  0  0  0
   -0.5215   -0.3028   31.0242 C   0  0  0  0  0  0  0  0  0  0  0  0
   -0.2090   -0.3225   29.4950 C   0  0  0  0  0  0  0  0  0  0  0  0
   -1.2641   -0.2916   28.3809 C   0  0  0  0  0  0  0  0  0  0  0  0
   -1.7673    1.0737   27.9107 C   0  0  0  0  0  0  0  0  0  0  0  0
   -0.7461    2.1898   27.9707 C   0  0  0  0  0  0  0  0  0  0  0  0
   -2.1747    0.9793   26.5428 O   0  0  0  0  0  0  0  0  0  0  0  0
   -2.0337   -1.1018   31.5584 S   0  0  0  0  0  0  0  0  0  0  0  0
   -2.0355   -1.2933   32.9888 O   0  0  0  0  0  0  0  0  0  0  0  0
   -3.1373   -0.4307   30.9364 O   0  0  0  0  0  0  0  0  0  0  0  0
   -1.8606   -2.5941   30.8612 N   0  0  0  0  0  0  0  0  0  0  0  0
   -0.3039   -7.1231   31.2362 N   0  0  0  0  0  0  0  0  0  0  0  0
   -0.9199   -7.5497   32.3398 C   0  0  0  0  0  0  0  0  0  0  0  0
   -2.0965   -8.1723   32.0824 O   0  0  0  0  0  0  0  0  0  0  0  0
    0.1923   -5.1796   37.2026 H   0  0  0  0  0  0  0  0  0  0  0  0
    0.1578   -6.9446   37.3214 H   0  0  0  0  0  0  0  0  0  0  0  0
    1.1563   -6.1521   36.0881 H   0  0  0  0  0  0  0  0  0  0  0  0
   -1.8819   -6.0022   36.2759 H   0  0  0  0  0  0  0  0  0  0  0  0
   -0.9417   -5.2643   34.9965 H   0  0  0  0  0  0  0  0  0  0  0  0
   -0.7254   -8.2741   35.4729 H   0  0  0  0  0  0  0  0  0  0  0  0
   -2.1695   -7.6471   34.6974 H   0  0  0  0  0  0  0  0  0  0  0  0
    2.6642   -5.7863   30.4793 H   0  0  0  0  0  0  0  0  0  0  0  0
    1.3551   -6.1470   29.3764 H   0  0  0  0  0  0  0  0  0  0  0  0
   -1.4965   -3.6614   28.1359 H   0  0  0  0  0  0  0  0  0  0  0  0
    3.6839   -3.9436   30.9120 H   0  0  0  0  0  0  0  0  0  0  0  0
    3.4215   -2.2589   31.2814 H   0  0  0  0  0  0  0  0  0  0  0  0
    3.0491   -4.5361   33.3020 H   0  0  0  0  0  0  0  0  0  0  0  0
    2.8356   -2.8244   33.6451 H   0  0  0  0  0  0  0  0  0  0  0  0
    5.4494   -4.1392   32.7317 H   0  0  0  0  0  0  0  0  0  0  0  0
    5.2402   -2.4099   33.0745 H   0  0  0  0  0  0  0  0  0  0  0  0
    5.0636   -3.6006   34.3750 H   0  0  0  0  0  0  0  0  0  0  0  0
    0.4745   -0.9336   32.8903 H   0  0  0  0  0  0  0  0  0  0  0  0
    1.5715   -0.5997   31.5519 H   0  0  0  0  0  0  0  0  0  0  0  0
   -0.5882    0.7354   31.3660 H   0  0  0  0  0  0  0  0  0  0  0  0
    0.5215    0.4789   29.3282 H   0  0  0  0  0  0  0  0  0  0  0  0
    0.4118   -1.1924   29.2745 H   0  0  0  0  0  0  0  0  0  0  0  0
   -0.7903   -0.7614   27.5075 H   0  0  0  0  0  0  0  0  0  0  0  0
   -2.1128   -0.9456   28.5978 H   0  0  0  0  0  0  0  0  0  0  0  0
   -2.6314    1.3714   28.5010 H   0  0  0  0  0  0  0  0  0  0  0  0
   -0.4205    2.4152   28.9887 H   0  0  0  0  0  0  0  0  0  0  0  0
    0.1348    1.9469   27.3653 H   0  0  0  0  0  0  0  0  0  0  0  0
   -1.1650    3.1094   27.5455 H   0  0  0  0  0  0  0  0  0  0  0  0
   -2.5426    0.0903   26.3911 H   0  0  0  0  0  0  0  0  0  0  0  0
   -2.3851   -2.7161   29.9931 H   0  0  0  0  0  0  0  0  0  0  0  0
   -2.3049   -8.7568   32.8290 H   0  0  0  0  0  0  0  0  0  0  0  0
  1  2  1  0
  2  3  1  0
  3  4  1  0
  4  5  2  0
  5  6  1  0
  6  7  2  0
  7  8  1  0
  8  9  1  0
  9 10  1  0
 10 11  1  0
 10 12  2  0
 12 13  1  0
 13 14  2  0
 14 15  1  0
 15 16  1  0
 16 17  1  0
 13 18  1  0
 18 19  1  0
 19 20  1  0
 20 21  1  0
 21 22  1  0
 22 23  1  0
 22 24  1  0
 19 25  1  0
 25 26  2  0
 25 27  2  0
 25 28  1  0
  7 29  1  0
 29 30  2  0
 30 31  1  0
 30  4  1  0
 14  9  1  0
 28 12  1  0
  1 32  1  0
  1 33  1  0
  1 34  1  0
  2 35  1  0
  2 36  1  0
  3 37  1  0
  3 38  1  0
  8 39  1  0
  8 40  1  0
 11 41  1  0
 15 42  1  0
 15 43  1  0
 16 44  1  0
 16 45  1  0
 17 46  1  0
 17 47  1  0
 17 48  1  0
 18 49  1  0
 18 50  1  0
 19 51  1  0
 20 52  1  0
 20 53  1  0
 21 54  1  0
 21 55  1  0
 22 56  1  0
 23 57  1  0
 23 58  1  0
 23 59  1  0
 24 60  1  0
 28 61  1  0
 31 62  1  0
M  END
>  <Energy>  (821) 
42.631377732991282

>  <compound_id>  (821) 
2902

>  <target_id>  (821) 
1

>  <reference_id>  (821) 
105

>  <inspiration_ids>  (821) 
[188, 105]

>  <energy_score>  (821) 
12.859013323290299

>  <distance_score>  (821) 
2.5115408181682968

>  <path>  (821) 
/opt/xchem-fragalysis-2/maxwin/BulkDock/SCRATCH/505736/C2902-P105/C2902-P105.minimised.mol

>  <scratch_subdir>  (821) 
/opt/xchem-fragalysis-2/maxwin/BulkDock/SCRATCH/505736/C2902-P105

>  <fragmenstein_runtime>  (821) 
10.606331586837769

>  <fragmenstein_outcome>  (821) 
too moved

>  <fragmenstein_mode>  (821) 
expansion

>  <fragmenstein_error>  (821) 


$$$$
C2906-P188
     RDKit          3D

 47 48  0  0  0  0  0  0  0  0999 V2000
    5.2108   -8.9897   37.1346 C   0  0  0  0  0  0  0  0  0  0  0  0
    4.1211   -7.9572   37.3995 C   0  0  0  0  0  0  0  0  0  0  0  0
    3.4221   -7.6135   36.1873 O   0  0  0  0  0  0  0  0  0  0  0  0
    3.7969   -6.4650   35.5687 C   0  0  0  0  0  0  0  0  0  0  0  0
    4.7493   -5.7593   35.8605 O   0  0  0  0  0  0  0  0  0  0  0  0
    2.9507   -6.1955   34.3782 C   0  0  0  0  0  0  0  0  0  0  0  0
    1.6613   -6.5592   34.3082 C   0  0  0  0  0  0  0  0  0  0  0  0
    0.7262   -6.5264   33.1369 C   0  0  0  0  0  0  0  0  0  0  0  0
   -0.4187   -7.3552   33.2258 C   0  0  0  0  0  0  0  0  0  0  0  0
   -0.7990   -7.8568   34.4339 O   0  0  0  0  0  0  0  0  0  0  0  0
   -1.1976   -7.6819   32.1399 C   0  0  0  0  0  0  0  0  0  0  0  0
   -0.8147   -7.1443   30.9472 C   0  0  0  0  0  0  0  0  0  0  0  0
    0.1759   -6.2539   30.8082 N   0  0  0  0  0  0  0  0  0  0  0  0
    0.8738   -5.8729   31.9055 C   0  0  0  0  0  0  0  0  0  0  0  0
    1.7697   -4.7102   31.5886 C   0  0  0  0  0  0  0  0  0  0  0  0
    1.0151   -3.5697   30.8629 C   0  0  0  0  0  0  0  0  0  0  0  0
    0.3953   -2.6868   31.8531 N   0  0  0  0  0  0  0  0  0  0  0  0
   -1.1572   -2.1075   31.6957 S   0  0  0  0  0  0  0  0  0  0  0  0
   -2.0666   -3.2189   31.5062 O   0  0  0  0  0  0  0  0  0  0  0  0
   -1.3429   -1.1601   32.7747 O   0  0  0  0  0  0  0  0  0  0  0  0
   -1.0859   -1.1695   30.1958 C   0  0  0  0  0  0  0  0  0  0  0  0
   -1.5076   -1.7690   29.0171 C   0  0  0  0  0  0  0  0  0  0  0  0
   -1.6778   -0.9855   27.8850 C   0  0  0  0  0  0  0  0  0  0  0  0
   -1.3825    0.3708   27.9114 C   0  0  0  0  0  0  0  0  0  0  0  0
   -1.6404    1.1548   26.8278 O   0  0  0  0  0  0  0  0  0  0  0  0
   -0.8836    0.9583   29.0627 C   0  0  0  0  0  0  0  0  0  0  0  0
   -0.7543    0.1907   30.2240 C   0  0  0  0  0  0  0  0  0  0  0  0
    4.8062   -9.8676   36.6240 H   0  0  0  0  0  0  0  0  0  0  0  0
    5.9787   -8.5690   36.4773 H   0  0  0  0  0  0  0  0  0  0  0  0
    5.6824   -9.3051   38.0694 H   0  0  0  0  0  0  0  0  0  0  0  0
    4.5353   -7.0698   37.8914 H   0  0  0  0  0  0  0  0  0  0  0  0
    3.3768   -8.3830   38.0806 H   0  0  0  0  0  0  0  0  0  0  0  0
    3.4812   -5.7065   33.5751 H   0  0  0  0  0  0  0  0  0  0  0  0
    1.2219   -7.0145   35.1988 H   0  0  0  0  0  0  0  0  0  0  0  0
   -1.2205   -8.7433   34.3863 H   0  0  0  0  0  0  0  0  0  0  0  0
   -2.0534   -8.3374   32.2167 H   0  0  0  0  0  0  0  0  0  0  0  0
   -1.3250   -7.3850   30.0243 H   0  0  0  0  0  0  0  0  0  0  0  0
    2.5723   -5.0754   30.9380 H   0  0  0  0  0  0  0  0  0  0  0  0
    2.2322   -4.3045   32.4920 H   0  0  0  0  0  0  0  0  0  0  0  0
    0.2888   -3.9349   30.1324 H   0  0  0  0  0  0  0  0  0  0  0  0
    1.7479   -2.9652   30.3152 H   0  0  0  0  0  0  0  0  0  0  0  0
    0.9770   -2.1718   32.5103 H   0  0  0  0  0  0  0  0  0  0  0  0
   -1.7808   -2.8200   28.9802 H   0  0  0  0  0  0  0  0  0  0  0  0
   -2.1091   -1.4451   27.0048 H   0  0  0  0  0  0  0  0  0  0  0  0
   -2.1742    0.6149   26.2165 H   0  0  0  0  0  0  0  0  0  0  0  0
   -0.6536    2.0199   29.0638 H   0  0  0  0  0  0  0  0  0  0  0  0
   -0.4297    0.6641   31.1465 H   0  0  0  0  0  0  0  0  0  0  0  0
  1  2  1  0
  2  3  1  0
  3  4  1  0
  4  5  2  0
  4  6  1  0
  6  7  2  3
  7  8  1  0
  8  9  2  0
  9 10  1  0
  9 11  1  0
 11 12  2  0
 12 13  1  0
 13 14  2  0
 14 15  1  0
 15 16  1  0
 16 17  1  0
 17 18  1  0
 18 19  2  0
 18 20  2  0
 18 21  1  0
 21 22  2  0
 22 23  1  0
 23 24  2  0
 24 25  1  0
 24 26  1  0
 26 27  2  0
 14  8  1  0
 27 21  1  0
  1 28  1  0
  1 29  1  0
  1 30  1  0
  2 31  1  0
  2 32  1  0
  6 33  1  0
  7 34  1  0
 10 35  1  0
 11 36  1  0
 12 37  1  0
 15 38  1  0
 15 39  1  0
 16 40  1  0
 16 41  1  0
 17 42  1  0
 22 43  1  0
 23 44  1  0
 25 45  1  0
 26 46  1  0
 27 47  1  0
M  END
>  <Energy>  (822) 
-8.2899421068707948

>  <compound_id>  (822) 
2906

>  <target_id>  (822) 
1

>  <reference_id>  (822) 
188

>  <inspiration_ids>  (822) 
[188, 148]

>  <energy_score>  (822) 
-41.458047310347155

>  <distance_score>  (822) 
2.1702380373280308

>  <path>  (822) 
/opt/xchem-fragalysis-2/maxwin/BulkDock/SCRATCH/505736/C2906-P188/C2906-P188.minimised.mol

>  <scratch_subdir>  (822) 
/opt/xchem-fragalysis-2/maxwin/BulkDock/SCRATCH/505736/C2906-P188

>  <fragmenstein_runtime>  (822) 
4.259291172027588

>  <fragmenstein_outcome>  (822) 
too moved

>  <fragmenstein_mode>  (822) 
expansion

>  <fragmenstein_error>  (822) 


$$$$
C2906-P148
     RDKit          3D

 47 48  0  0  0  0  0  0  0  0999 V2000
    5.0506   -9.2266   37.5536 C   0  0  0  0  0  0  0  0  0  0  0  0
    5.1488   -8.9463   36.0644 C   0  0  0  0  0  0  0  0  0  0  0  0
    3.9778   -8.2783   35.5540 O   0  0  0  0  0  0  0  0  0  0  0  0
    4.0514   -6.9214   35.5070 C   0  0  0  0  0  0  0  0  0  0  0  0
    4.8747   -6.2215   36.0733 O   0  0  0  0  0  0  0  0  0  0  0  0
    3.0435   -6.3636   34.5698 C   0  0  0  0  0  0  0  0  0  0  0  0
    1.9252   -7.0113   34.2006 C   0  0  0  0  0  0  0  0  0  0  0  0
    0.9442   -6.5923   33.0950 C   0  0  0  0  0  0  0  0  0  0  0  0
   -0.3385   -7.0319   33.3929 C   0  0  0  0  0  0  0  0  0  0  0  0
   -0.7810   -8.2339   32.9411 O   0  0  0  0  0  0  0  0  0  0  0  0
   -1.1313   -6.2137   34.1586 C   0  0  0  0  0  0  0  0  0  0  0  0
   -0.7314   -4.8928   34.2540 C   0  0  0  0  0  0  0  0  0  0  0  0
    0.2647   -4.3751   33.5003 N   0  0  0  0  0  0  0  0  0  0  0  0
    0.9620   -5.2548   32.7557 C   0  0  0  0  0  0  0  0  0  0  0  0
    1.5555   -4.7716   31.4470 C   0  0  0  0  0  0  0  0  0  0  0  0
    0.5943   -3.8437   30.6779 C   0  0  0  0  0  0  0  0  0  0  0  0
    0.3597   -2.6142   31.4664 N   0  0  0  0  0  0  0  0  0  0  0  0
   -1.1803   -1.9400   31.4655 S   0  0  0  0  0  0  0  0  0  0  0  0
   -2.1620   -2.9986   31.3399 O   0  0  0  0  0  0  0  0  0  0  0  0
   -1.2296   -1.0175   32.5807 O   0  0  0  0  0  0  0  0  0  0  0  0
   -1.1516   -0.9768   29.9872 C   0  0  0  0  0  0  0  0  0  0  0  0
   -1.6301   -1.5369   28.8104 C   0  0  0  0  0  0  0  0  0  0  0  0
   -1.7728   -0.7341   27.6854 C   0  0  0  0  0  0  0  0  0  0  0  0
   -1.4319    0.6109   27.7346 C   0  0  0  0  0  0  0  0  0  0  0  0
   -1.6679    1.4269   26.6700 O   0  0  0  0  0  0  0  0  0  0  0  0
   -0.8847    1.1571   28.8852 C   0  0  0  0  0  0  0  0  0  0  0  0
   -0.7482    0.3606   30.0252 C   0  0  0  0  0  0  0  0  0  0  0  0
    4.1439   -9.7902   37.7891 H   0  0  0  0  0  0  0  0  0  0  0  0
    5.9199   -9.7919   37.9009 H   0  0  0  0  0  0  0  0  0  0  0  0
    4.9940   -8.2896   38.1169 H   0  0  0  0  0  0  0  0  0  0  0  0
    5.2237   -9.8955   35.5231 H   0  0  0  0  0  0  0  0  0  0  0  0
    6.0578   -8.3790   35.8318 H   0  0  0  0  0  0  0  0  0  0  0  0
    3.3296   -5.4048   34.1512 H   0  0  0  0  0  0  0  0  0  0  0  0
    1.6467   -7.9230   34.7271 H   0  0  0  0  0  0  0  0  0  0  0  0
   -1.4994   -8.5468   33.5241 H   0  0  0  0  0  0  0  0  0  0  0  0
   -2.0290   -6.5621   34.6432 H   0  0  0  0  0  0  0  0  0  0  0  0
   -1.2707   -4.1765   34.8679 H   0  0  0  0  0  0  0  0  0  0  0  0
    1.7932   -5.6305   30.8098 H   0  0  0  0  0  0  0  0  0  0  0  0
    2.4948   -4.2513   31.6681 H   0  0  0  0  0  0  0  0  0  0  0  0
   -0.3363   -4.3817   30.4740 H   0  0  0  0  0  0  0  0  0  0  0  0
    1.0369   -3.5591   29.7178 H   0  0  0  0  0  0  0  0  0  0  0  0
    0.6168   -2.7148   32.4594 H   0  0  0  0  0  0  0  0  0  0  0  0
   -1.9349   -2.5766   28.7657 H   0  0  0  0  0  0  0  0  0  0  0  0
   -2.1866   -1.1699   26.7830 H   0  0  0  0  0  0  0  0  0  0  0  0
   -2.4004    1.0340   26.1629 H   0  0  0  0  0  0  0  0  0  0  0  0
   -0.6109    2.2089   28.9062 H   0  0  0  0  0  0  0  0  0  0  0  0
   -0.3538    0.7941   30.9404 H   0  0  0  0  0  0  0  0  0  0  0  0
  1  2  1  0
  2  3  1  0
  3  4  1  0
  4  5  2  0
  4  6  1  0
  6  7  2  3
  7  8  1  0
  8  9  2  0
  9 10  1  0
  9 11  1  0
 11 12  2  0
 12 13  1  0
 13 14  2  0
 14 15  1  0
 15 16  1  0
 16 17  1  0
 17 18  1  0
 18 19  2  0
 18 20  2  0
 18 21  1  0
 21 22  2  0
 22 23  1  0
 23 24  2  0
 24 25  1  0
 24 26  1  0
 26 27  2  0
 14  8  1  0
 27 21  1  0
  1 28  1  0
  1 29  1  0
  1 30  1  0
  2 31  1  0
  2 32  1  0
  6 33  1  0
  7 34  1  0
 10 35  1  0
 11 36  1  0
 12 37  1  0
 15 38  1  0
 15 39  1  0
 16 40  1  0
 16 41  1  0
 17 42  1  0
 22 43  1  0
 23 44  1  0
 25 45  1  0
 26 46  1  0
 27 47  1  0
M  END
>  <Energy>  (823) 
36.860449748434121

>  <compound_id>  (823) 
2906

>  <target_id>  (823) 
1

>  <reference_id>  (823) 
148

>  <inspiration_ids>  (823) 
[188, 148]

>  <energy_score>  (823) 
3.6923445449563985

>  <distance_score>  (823) 
1.709154199597761

>  <path>  (823) 
/opt/xchem-fragalysis-2/maxwin/BulkDock/SCRATCH/505736/C2906-P148/C2906-P148.minimised.mol

>  <scratch_subdir>  (823) 
/opt/xchem-fragalysis-2/maxwin/BulkDock/SCRATCH/505736/C2906-P148

>  <fragmenstein_runtime>  (823) 
4.4879584312438965

>  <fragmenstein_outcome>  (823) 
too moved

>  <fragmenstein_mode>  (823) 
expansion

>  <fragmenstein_error>  (823) 


$$$$
C2904-P188
     RDKit          3D

 39 40  0  0  0  0  0  0  0  0999 V2000
   -0.2296   -5.8722   35.0088 C   0  0  0  0  0  0  0  0  0  0  0  0
   -0.1268   -6.1924   33.5463 C   0  0  0  0  0  0  0  0  0  0  0  0
   -0.8220   -7.2527   33.0131 C   0  0  0  0  0  0  0  0  0  0  0  0
   -0.6142   -7.4712   31.6781 C   0  0  0  0  0  0  0  0  0  0  0  0
   -1.1810   -8.5463   31.0712 O   0  0  0  0  0  0  0  0  0  0  0  0
    0.1766   -6.7450   30.8785 N   0  0  0  0  0  0  0  0  0  0  0  0
    0.7894   -5.7093   31.4766 C   0  0  0  0  0  0  0  0  0  0  0  0
    1.5031   -4.6785   30.6262 C   0  0  0  0  0  0  0  0  0  0  0  0
    2.2229   -5.2293   29.4000 C   0  0  0  0  0  0  0  0  0  0  0  0
    0.4713   -3.6214   30.2253 C   0  0  0  0  0  0  0  0  0  0  0  0
    0.2355   -2.7028   31.3629 N   0  0  0  0  0  0  0  0  0  0  0  0
   -1.2454   -1.9130   31.4178 S   0  0  0  0  0  0  0  0  0  0  0  0
   -2.2806   -2.9119   31.2528 O   0  0  0  0  0  0  0  0  0  0  0  0
   -1.2210   -1.0640   32.5895 O   0  0  0  0  0  0  0  0  0  0  0  0
   -1.1669   -0.8725   29.9882 C   0  0  0  0  0  0  0  0  0  0  0  0
   -1.5888   -1.3677   28.7581 C   0  0  0  0  0  0  0  0  0  0  0  0
   -1.6825   -0.5024   27.6723 C   0  0  0  0  0  0  0  0  0  0  0  0
   -1.3626    0.8371   27.8095 C   0  0  0  0  0  0  0  0  0  0  0  0
   -1.6156    1.6705   26.7625 O   0  0  0  0  0  0  0  0  0  0  0  0
   -0.8521    1.3151   29.0058 C   0  0  0  0  0  0  0  0  0  0  0  0
   -0.7618    0.4592   30.1092 C   0  0  0  0  0  0  0  0  0  0  0  0
    0.6834   -5.4157   32.7916 N   0  0  0  0  0  0  0  0  0  0  0  0
    0.2097   -6.6811   35.6009 H   0  0  0  0  0  0  0  0  0  0  0  0
    0.3039   -4.9454   35.2421 H   0  0  0  0  0  0  0  0  0  0  0  0
   -1.2766   -5.7442   35.2993 H   0  0  0  0  0  0  0  0  0  0  0  0
   -1.4558   -7.8993   33.6039 H   0  0  0  0  0  0  0  0  0  0  0  0
   -0.5516   -8.6917   30.3388 H   0  0  0  0  0  0  0  0  0  0  0  0
    2.2752   -4.2082   31.2512 H   0  0  0  0  0  0  0  0  0  0  0  0
    1.5816   -5.8689   28.7992 H   0  0  0  0  0  0  0  0  0  0  0  0
    3.0914   -5.8218   29.6863 H   0  0  0  0  0  0  0  0  0  0  0  0
    2.5926   -4.4189   28.7623 H   0  0  0  0  0  0  0  0  0  0  0  0
    0.8541   -3.0133   29.3977 H   0  0  0  0  0  0  0  0  0  0  0  0
   -0.4575   -4.0967   29.8917 H   0  0  0  0  0  0  0  0  0  0  0  0
    0.4336   -3.0928   32.2917 H   0  0  0  0  0  0  0  0  0  0  0  0
   -1.9069   -2.3989   28.6372 H   0  0  0  0  0  0  0  0  0  0  0  0
   -2.0911   -0.8582   26.7347 H   0  0  0  0  0  0  0  0  0  0  0  0
   -1.9168    2.5220   27.1341 H   0  0  0  0  0  0  0  0  0  0  0  0
   -0.5540    2.3560   29.0939 H   0  0  0  0  0  0  0  0  0  0  0  0
   -0.4013    0.8436   31.0600 H   0  0  0  0  0  0  0  0  0  0  0  0
  1  2  1  0
  2  3  2  0
  3  4  1  0
  4  5  1  0
  4  6  2  0
  6  7  1  0
  7  8  1  0
  8  9  1  0
  8 10  1  0
 10 11  1  0
 11 12  1  0
 12 13  2  0
 12 14  2  0
 12 15  1  0
 15 16  2  0
 16 17  1  0
 17 18  2  0
 18 19  1  0
 18 20  1  0
 20 21  2  0
  7 22  2  0
 22  2  1  0
 21 15  1  0
  1 23  1  0
  1 24  1  0
  1 25  1  0
  3 26  1  0
  5 27  1  0
  8 28  1  0
  9 29  1  0
  9 30  1  0
  9 31  1  0
 10 32  1  0
 10 33  1  0
 11 34  1  0
 16 35  1  0
 17 36  1  0
 19 37  1  0
 20 38  1  0
 21 39  1  0
M  END
>  <Energy>  (824) 
-85.664854945170717

>  <compound_id>  (824) 
2904

>  <target_id>  (824) 
1

>  <reference_id>  (824) 
188

>  <inspiration_ids>  (824) 
[188, 149]

>  <energy_score>  (824) 
-113.4111381335654

>  <distance_score>  (824) 
0.918792545117951

>  <path>  (824) 
/opt/xchem-fragalysis-2/maxwin/BulkDock/SCRATCH/505736/C2904-P188/C2904-P188.minimised.mol

>  <scratch_subdir>  (824) 
/opt/xchem-fragalysis-2/maxwin/BulkDock/SCRATCH/505736/C2904-P188

>  <fragmenstein_runtime>  (824) 
3.7425649166107178

>  <fragmenstein_outcome>  (824) 
acceptable

>  <fragmenstein_mode>  (824) 
expansion

>  <fragmenstein_error>  (824) 


$$$$
C2904-P149
     RDKit          3D

 39 40  0  0  0  0  0  0  0  0999 V2000
   -0.2683   -5.7494   35.0063 C   0  0  0  0  0  0  0  0  0  0  0  0
   -0.1633   -6.0731   33.5448 C   0  0  0  0  0  0  0  0  0  0  0  0
   -0.8178   -7.1615   33.0216 C   0  0  0  0  0  0  0  0  0  0  0  0
   -0.5960   -7.3777   31.6886 C   0  0  0  0  0  0  0  0  0  0  0  0
   -1.1027   -8.4916   31.1012 O   0  0  0  0  0  0  0  0  0  0  0  0
    0.1696   -6.6323   30.8792 N   0  0  0  0  0  0  0  0  0  0  0  0
    0.7487   -5.5754   31.4679 C   0  0  0  0  0  0  0  0  0  0  0  0
    1.4897   -4.5478   30.6337 C   0  0  0  0  0  0  0  0  0  0  0  0
    2.2007   -5.0423   29.3751 C   0  0  0  0  0  0  0  0  0  0  0  0
    0.4966   -3.4530   30.2554 C   0  0  0  0  0  0  0  0  0  0  0  0
    0.2374   -2.5744   31.4144 N   0  0  0  0  0  0  0  0  0  0  0  0
   -1.2387   -1.7729   31.4114 S   0  0  0  0  0  0  0  0  0  0  0  0
   -2.2694   -2.7759   31.2401 O   0  0  0  0  0  0  0  0  0  0  0  0
   -1.2414   -0.9048   32.5687 O   0  0  0  0  0  0  0  0  0  0  0  0
   -1.1196   -0.7648   29.9575 C   0  0  0  0  0  0  0  0  0  0  0  0
   -1.5107   -1.2854   28.7258 C   0  0  0  0  0  0  0  0  0  0  0  0
   -1.6427   -0.4367   27.6312 C   0  0  0  0  0  0  0  0  0  0  0  0
   -1.3542    0.9111   27.7552 C   0  0  0  0  0  0  0  0  0  0  0  0
   -1.6152    1.7209   26.6916 O   0  0  0  0  0  0  0  0  0  0  0  0
   -0.8614    1.4170   28.9499 C   0  0  0  0  0  0  0  0  0  0  0  0
   -0.7468    0.5749   30.0625 C   0  0  0  0  0  0  0  0  0  0  0  0
    0.6248   -5.2795   32.7828 N   0  0  0  0  0  0  0  0  0  0  0  0
    0.1802   -4.7740   35.2204 H   0  0  0  0  0  0  0  0  0  0  0  0
   -1.3162   -5.7164   35.3182 H   0  0  0  0  0  0  0  0  0  0  0  0
    0.2562   -6.5079   35.5954 H   0  0  0  0  0  0  0  0  0  0  0  0
   -1.4305   -7.8289   33.6138 H   0  0  0  0  0  0  0  0  0  0  0  0
   -0.4383   -8.6520   30.4025 H   0  0  0  0  0  0  0  0  0  0  0  0
    2.2683   -4.1219   31.2827 H   0  0  0  0  0  0  0  0  0  0  0  0
    1.7495   -4.6381   28.4648 H   0  0  0  0  0  0  0  0  0  0  0  0
    2.2278   -6.1263   29.2881 H   0  0  0  0  0  0  0  0  0  0  0  0
    3.2377   -4.6856   29.3717 H   0  0  0  0  0  0  0  0  0  0  0  0
    0.9190   -2.8157   29.4694 H   0  0  0  0  0  0  0  0  0  0  0  0
   -0.4258   -3.9017   29.8708 H   0  0  0  0  0  0  0  0  0  0  0  0
    0.3606   -3.0228   32.3303 H   0  0  0  0  0  0  0  0  0  0  0  0
   -1.8008   -2.3256   28.6176 H   0  0  0  0  0  0  0  0  0  0  0  0
   -2.0419   -0.8183   26.6975 H   0  0  0  0  0  0  0  0  0  0  0  0
   -1.8340    2.6049   27.0404 H   0  0  0  0  0  0  0  0  0  0  0  0
   -0.6018    2.4688   29.0372 H   0  0  0  0  0  0  0  0  0  0  0  0
   -0.4027    0.9789   31.0114 H   0  0  0  0  0  0  0  0  0  0  0  0
  1  2  1  0
  2  3  2  0
  3  4  1  0
  4  5  1  0
  4  6  2  0
  6  7  1  0
  7  8  1  0
  8  9  1  0
  8 10  1  0
 10 11  1  0
 11 12  1  0
 12 13  2  0
 12 14  2  0
 12 15  1  0
 15 16  2  0
 16 17  1  0
 17 18  2  0
 18 19  1  0
 18 20  1  0
 20 21  2  0
  7 22  2  0
 22  2  1  0
 21 15  1  0
  1 23  1  0
  1 24  1  0
  1 25  1  0
  3 26  1  0
  5 27  1  0
  8 28  1  0
  9 29  1  0
  9 30  1  0
  9 31  1  0
 10 32  1  0
 10 33  1  0
 11 34  1  0
 16 35  1  0
 17 36  1  0
 19 37  1  0
 20 38  1  0
 21 39  1  0
M  END
>  <Energy>  (825) 
-80.546112349707897

>  <compound_id>  (825) 
2904

>  <target_id>  (825) 
1

>  <reference_id>  (825) 
149

>  <inspiration_ids>  (825) 
[188, 149]

>  <energy_score>  (825) 
-108.2923955381045

>  <distance_score>  (825) 
0.8013818605906704

>  <path>  (825) 
/opt/xchem-fragalysis-2/maxwin/BulkDock/SCRATCH/505736/C2904-P149/C2904-P149.minimised.mol

>  <scratch_subdir>  (825) 
/opt/xchem-fragalysis-2/maxwin/BulkDock/SCRATCH/505736/C2904-P149

>  <fragmenstein_runtime>  (825) 
3.4558932781219482

>  <fragmenstein_outcome>  (825) 
acceptable

>  <fragmenstein_mode>  (825) 
expansion

>  <fragmenstein_error>  (825) 


$$$$
C2869-P188
     RDKit          3D

 36 37  0  0  0  0  0  0  0  0999 V2000
   -1.4574   -7.4892   34.4842 C   0  0  0  0  0  0  0  0  0  0  0  0
   -0.7351   -6.9511   33.3025 C   0  0  0  0  0  0  0  0  0  0  0  0
    0.2203   -5.9764   33.5197 C   0  0  0  0  0  0  0  0  0  0  0  0
    0.9405   -5.3969   32.5489 N   0  0  0  0  0  0  0  0  0  0  0  0
    0.6690   -5.8099   31.2982 C   0  0  0  0  0  0  0  0  0  0  0  0
    1.3045   -5.0239   30.1916 C   0  0  0  0  0  0  0  0  0  0  0  0
    0.4189   -3.8286   29.8633 C   0  0  0  0  0  0  0  0  0  0  0  0
    0.3922   -2.8586   30.9817 N   0  0  0  0  0  0  0  0  0  0  0  0
   -1.0323   -2.0177   31.2746 S   0  0  0  0  0  0  0  0  0  0  0  0
   -2.1438   -2.9423   31.1945 O   0  0  0  0  0  0  0  0  0  0  0  0
   -0.8124   -1.2327   32.4713 O   0  0  0  0  0  0  0  0  0  0  0  0
   -1.0810   -0.9006   29.9016 C   0  0  0  0  0  0  0  0  0  0  0  0
   -1.5548   -1.3555   28.6750 C   0  0  0  0  0  0  0  0  0  0  0  0
   -1.6964   -0.4570   27.6226 C   0  0  0  0  0  0  0  0  0  0  0  0
   -1.3859    0.8799   27.7927 C   0  0  0  0  0  0  0  0  0  0  0  0
   -1.6739    1.7406   26.7777 O   0  0  0  0  0  0  0  0  0  0  0  0
   -0.8448    1.3265   28.9878 C   0  0  0  0  0  0  0  0  0  0  0  0
   -0.6986    0.4347   30.0568 C   0  0  0  0  0  0  0  0  0  0  0  0
   -0.2170   -6.7652   30.9704 N   0  0  0  0  0  0  0  0  0  0  0  0
   -0.8965   -7.3224   31.9840 C   0  0  0  0  0  0  0  0  0  0  0  0
   -1.7730   -8.2782   31.5629 O   0  0  0  0  0  0  0  0  0  0  0  0
   -1.8745   -6.6658   35.0730 H   0  0  0  0  0  0  0  0  0  0  0  0
   -0.7622   -8.0355   35.1291 H   0  0  0  0  0  0  0  0  0  0  0  0
   -2.2880   -8.1442   34.2274 H   0  0  0  0  0  0  0  0  0  0  0  0
    0.4290   -5.6110   34.5231 H   0  0  0  0  0  0  0  0  0  0  0  0
    1.4293   -5.6625   29.3122 H   0  0  0  0  0  0  0  0  0  0  0  0
    2.3049   -4.6960   30.4979 H   0  0  0  0  0  0  0  0  0  0  0  0
    0.8221   -3.3135   28.9844 H   0  0  0  0  0  0  0  0  0  0  0  0
   -0.5887   -4.1733   29.6115 H   0  0  0  0  0  0  0  0  0  0  0  0
    0.8264   -3.1531   31.8623 H   0  0  0  0  0  0  0  0  0  0  0  0
   -1.8612   -2.3866   28.5299 H   0  0  0  0  0  0  0  0  0  0  0  0
   -2.1223   -0.7883   26.6837 H   0  0  0  0  0  0  0  0  0  0  0  0
   -2.0535    2.5440   27.1834 H   0  0  0  0  0  0  0  0  0  0  0  0
   -0.5534    2.3668   29.0972 H   0  0  0  0  0  0  0  0  0  0  0  0
   -0.3003    0.7903   31.0035 H   0  0  0  0  0  0  0  0  0  0  0  0
   -2.2415   -8.6545   32.3256 H   0  0  0  0  0  0  0  0  0  0  0  0
  1  2  1  0
  2  3  2  0
  3  4  1  0
  4  5  2  0
  5  6  1  0
  6  7  1  0
  7  8  1  0
  8  9  1  0
  9 10  2  0
  9 11  2  0
  9 12  1  0
 12 13  2  0
 13 14  1  0
 14 15  2  0
 15 16  1  0
 15 17  1  0
 17 18  2  0
  5 19  1  0
 19 20  2  0
 20 21  1  0
 20  2  1  0
 18 12  1  0
  1 22  1  0
  1 23  1  0
  1 24  1  0
  3 25  1  0
  6 26  1  0
  6 27  1  0
  7 28  1  0
  7 29  1  0
  8 30  1  0
 13 31  1  0
 14 32  1  0
 16 33  1  0
 17 34  1  0
 18 35  1  0
 21 36  1  0
M  END
>  <Energy>  (826) 
-77.315388814094291

>  <compound_id>  (826) 
2869

>  <target_id>  (826) 
1

>  <reference_id>  (826) 
188

>  <inspiration_ids>  (826) 
[188, 152]

>  <energy_score>  (826) 
-44.65656845901066

>  <distance_score>  (826) 
0.6415001465599084

>  <path>  (826) 
/opt/xchem-fragalysis-2/maxwin/BulkDock/SCRATCH/505736/C2869-P188/C2869-P188.minimised.mol

>  <scratch_subdir>  (826) 
/opt/xchem-fragalysis-2/maxwin/BulkDock/SCRATCH/505736/C2869-P188

>  <fragmenstein_runtime>  (826) 
4.38375186920166

>  <fragmenstein_outcome>  (826) 
acceptable

>  <fragmenstein_mode>  (826) 
expansion

>  <fragmenstein_error>  (826) 


$$$$
C2869-P152
     RDKit          3D

 36 37  0  0  0  0  0  0  0  0999 V2000
   -1.5059   -7.6219   34.4927 C   0  0  0  0  0  0  0  0  0  0  0  0
   -0.8170   -7.0078   33.3295 C   0  0  0  0  0  0  0  0  0  0  0  0
    0.1041   -6.0043   33.5613 C   0  0  0  0  0  0  0  0  0  0  0  0
    0.8293   -5.4129   32.6012 N   0  0  0  0  0  0  0  0  0  0  0  0
    0.5909   -5.8336   31.3461 C   0  0  0  0  0  0  0  0  0  0  0  0
    1.2829   -5.0786   30.2519 C   0  0  0  0  0  0  0  0  0  0  0  0
    0.4403   -3.8724   29.8682 C   0  0  0  0  0  0  0  0  0  0  0  0
    0.3829   -2.8866   30.9688 N   0  0  0  0  0  0  0  0  0  0  0  0
   -1.0488   -2.0490   31.2195 S   0  0  0  0  0  0  0  0  0  0  0  0
   -2.1557   -2.9782   31.1295 O   0  0  0  0  0  0  0  0  0  0  0  0
   -0.8556   -1.2466   32.4093 O   0  0  0  0  0  0  0  0  0  0  0  0
   -1.0706   -0.9533   29.8276 C   0  0  0  0  0  0  0  0  0  0  0  0
   -1.4636   -1.4344   28.5816 C   0  0  0  0  0  0  0  0  0  0  0  0
   -1.5724   -0.5539   27.5086 C   0  0  0  0  0  0  0  0  0  0  0  0
   -1.3342    0.7993   27.6882 C   0  0  0  0  0  0  0  0  0  0  0  0
   -1.6013    1.6400   26.6498 O   0  0  0  0  0  0  0  0  0  0  0  0
   -0.8857    1.2780   28.9114 C   0  0  0  0  0  0  0  0  0  0  0  0
   -0.7419    0.3939   29.9867 C   0  0  0  0  0  0  0  0  0  0  0  0
   -0.2773   -6.8004   31.0040 N   0  0  0  0  0  0  0  0  0  0  0  0
   -0.9543   -7.3742   32.0081 C   0  0  0  0  0  0  0  0  0  0  0  0
   -1.7959   -8.3610   31.5860 O   0  0  0  0  0  0  0  0  0  0  0  0
   -1.7994   -6.8473   35.2076 H   0  0  0  0  0  0  0  0  0  0  0  0
   -0.8214   -8.2973   35.0117 H   0  0  0  0  0  0  0  0  0  0  0  0
   -2.4139   -8.1635   34.2257 H   0  0  0  0  0  0  0  0  0  0  0  0
    0.2892   -5.6323   34.5667 H   0  0  0  0  0  0  0  0  0  0  0  0
    1.4287   -5.7345   29.3886 H   0  0  0  0  0  0  0  0  0  0  0  0
    2.2777   -4.7663   30.5910 H   0  0  0  0  0  0  0  0  0  0  0  0
    0.8939   -3.3785   29.0019 H   0  0  0  0  0  0  0  0  0  0  0  0
   -0.5606   -4.2016   29.5739 H   0  0  0  0  0  0  0  0  0  0  0  0
    0.8193   -3.1465   31.8587 H   0  0  0  0  0  0  0  0  0  0  0  0
   -1.7229   -2.4769   28.4308 H   0  0  0  0  0  0  0  0  0  0  0  0
   -1.9133   -0.9196   26.5457 H   0  0  0  0  0  0  0  0  0  0  0  0
   -1.8347    2.5071   27.0290 H   0  0  0  0  0  0  0  0  0  0  0  0
   -0.6619    2.3330   29.0445 H   0  0  0  0  0  0  0  0  0  0  0  0
   -0.3931    0.7658   30.9468 H   0  0  0  0  0  0  0  0  0  0  0  0
   -2.3634   -8.6449   32.3198 H   0  0  0  0  0  0  0  0  0  0  0  0
  1  2  1  0
  2  3  2  0
  3  4  1  0
  4  5  2  0
  5  6  1  0
  6  7  1  0
  7  8  1  0
  8  9  1  0
  9 10  2  0
  9 11  2  0
  9 12  1  0
 12 13  2  0
 13 14  1  0
 14 15  2  0
 15 16  1  0
 15 17  1  0
 17 18  2  0
  5 19  1  0
 19 20  2  0
 20 21  1  0
 20  2  1  0
 18 12  1  0
  1 22  1  0
  1 23  1  0
  1 24  1  0
  3 25  1  0
  6 26  1  0
  6 27  1  0
  7 28  1  0
  7 29  1  0
  8 30  1  0
 13 31  1  0
 14 32  1  0
 16 33  1  0
 17 34  1  0
 18 35  1  0
 21 36  1  0
M  END
>  <Energy>  (827) 
-78.166096718778263

>  <compound_id>  (827) 
2869

>  <target_id>  (827) 
1

>  <reference_id>  (827) 
152

>  <inspiration_ids>  (827) 
[188, 152]

>  <energy_score>  (827) 
-45.50727636369541

>  <distance_score>  (827) 
0.6313709704754701

>  <path>  (827) 
/opt/xchem-fragalysis-2/maxwin/BulkDock/SCRATCH/505736/C2869-P152/C2869-P152.minimised.mol

>  <scratch_subdir>  (827) 
/opt/xchem-fragalysis-2/maxwin/BulkDock/SCRATCH/505736/C2869-P152

>  <fragmenstein_runtime>  (827) 
4.781306505203247

>  <fragmenstein_outcome>  (827) 
acceptable

>  <fragmenstein_mode>  (827) 
expansion

>  <fragmenstein_error>  (827) 


$$$$
C2145-P188
     RDKit          3D

 50 53  0  0  0  0  0  0  0  0999 V2000
   -1.6815   -7.9125   31.1441 N   0  0  0  0  0  0  0  0  0  0  0  0
   -0.5456   -7.4373   31.8877 C   0  0  0  0  0  0  0  0  0  0  0  0
   -0.5934   -7.6755   33.3815 C   0  0  0  0  0  0  0  0  0  0  0  0
    0.6295   -7.0387   34.0752 C   0  0  0  0  0  0  0  0  0  0  0  0
    1.6991   -7.8877   34.4311 O   0  0  0  0  0  0  0  0  0  0  0  0
    1.2397   -6.0612   33.2157 N   0  0  0  0  0  0  0  0  0  0  0  0
    0.2062   -5.2403   32.5945 C   0  0  0  0  0  0  0  0  0  0  0  0
   -0.7661   -4.6759   33.6990 C   0  0  0  0  0  0  0  0  0  0  0  0
    0.0137   -3.8239   34.6053 C   0  0  0  0  0  0  0  0  0  0  0  0
    0.1396   -3.7880   36.0100 C   0  0  0  0  0  0  0  0  0  0  0  0
    1.0897   -2.8303   36.2787 C   0  0  0  0  0  0  0  0  0  0  0  0
    1.5180   -2.2972   35.0814 N   0  0  0  0  0  0  0  0  0  0  0  0
    0.9057   -2.9430   34.0440 C   0  0  0  0  0  0  0  0  0  0  0  0
    1.2441   -2.8509   32.5873 C   0  0  0  0  0  0  0  0  0  0  0  0
    0.6112   -1.7200   31.8953 N   0  0  0  0  0  0  0  0  0  0  0  0
   -1.0476   -1.5997   31.6257 S   0  0  0  0  0  0  0  0  0  0  0  0
   -1.6484   -2.8891   31.3526 O   0  0  0  0  0  0  0  0  0  0  0  0
   -1.6009   -0.7017   32.6140 O   0  0  0  0  0  0  0  0  0  0  0  0
   -1.0497   -0.7169   30.0808 C   0  0  0  0  0  0  0  0  0  0  0  0
   -1.4603   -1.3516   28.9119 C   0  0  0  0  0  0  0  0  0  0  0  0
   -1.6432   -0.5878   27.7621 C   0  0  0  0  0  0  0  0  0  0  0  0
   -1.4095    0.7792   27.7773 C   0  0  0  0  0  0  0  0  0  0  0  0
   -1.7546    1.5147   26.6835 O   0  0  0  0  0  0  0  0  0  0  0  0
   -0.8978    1.3912   28.9104 C   0  0  0  0  0  0  0  0  0  0  0  0
   -0.7216    0.6405   30.0754 C   0  0  0  0  0  0  0  0  0  0  0  0
    0.9734   -4.1474   31.8033 C   0  0  0  0  0  0  0  0  0  0  0  0
   -0.4820   -6.0409   31.5800 N   0  0  0  0  0  0  0  0  0  0  0  0
   -2.5386   -7.6840   31.6424 H   0  0  0  0  0  0  0  0  0  0  0  0
   -1.6543   -7.3793   30.2772 H   0  0  0  0  0  0  0  0  0  0  0  0
    0.3293   -7.9167   31.4514 H   0  0  0  0  0  0  0  0  0  0  0  0
   -1.5290   -7.2791   33.7899 H   0  0  0  0  0  0  0  0  0  0  0  0
   -0.6711   -8.7205   33.5515 H   0  0  0  0  0  0  0  0  0  0  0  0
    0.2958   -6.6210   35.0306 H   0  0  0  0  0  0  0  0  0  0  0  0
    2.2581   -7.3085   34.9824 H   0  0  0  0  0  0  0  0  0  0  0  0
    1.7423   -6.5461   32.4788 H   0  0  0  0  0  0  0  0  0  0  0  0
   -1.3035   -5.4172   34.2862 H   0  0  0  0  0  0  0  0  0  0  0  0
   -1.5518   -4.0788   33.2426 H   0  0  0  0  0  0  0  0  0  0  0  0
   -0.3969   -4.3821   36.7387 H   0  0  0  0  0  0  0  0  0  0  0  0
    1.4913   -2.4667   37.2148 H   0  0  0  0  0  0  0  0  0  0  0  0
    2.2190   -1.5738   34.9900 H   0  0  0  0  0  0  0  0  0  0  0  0
    2.3255   -2.6609   32.5252 H   0  0  0  0  0  0  0  0  0  0  0  0
    1.1590   -1.3828   31.1041 H   0  0  0  0  0  0  0  0  0  0  0  0
   -1.7124   -2.4089   28.8853 H   0  0  0  0  0  0  0  0  0  0  0  0
   -2.0585   -1.0506   26.8749 H   0  0  0  0  0  0  0  0  0  0  0  0
   -2.1492    2.3462   27.0109 H   0  0  0  0  0  0  0  0  0  0  0  0
   -0.6796    2.4555   28.9046 H   0  0  0  0  0  0  0  0  0  0  0  0
   -0.3743    1.1254   30.9845 H   0  0  0  0  0  0  0  0  0  0  0  0
    0.4793   -3.9279   30.8472 H   0  0  0  0  0  0  0  0  0  0  0  0
    1.9446   -4.5445   31.4652 H   0  0  0  0  0  0  0  0  0  0  0  0
   -1.4205   -5.6575   31.5152 H   0  0  0  0  0  0  0  0  0  0  0  0
  1  2  1  0
  2  3  1  0
  3  4  1  0
  4  5  1  0
  4  6  1  0
  6  7  1  0
  7  8  1  0
  8  9  1  0
  9 10  1  0
 10 11  2  0
 11 12  1  0
 12 13  1  0
 13 14  1  0
 14 15  1  0
 15 16  1  0
 16 17  2  0
 16 18  2  0
 16 19  1  0
 19 20  2  0
 20 21  1  0
 21 22  2  0
 22 23  1  0
 22 24  1  0
 24 25  2  0
 14 26  1  0
  7 27  1  0
 27  2  1  0
 26  7  1  0
 13  9  2  0
 25 19  1  0
  1 28  1  0
  1 29  1  0
  2 30  1  0
  3 31  1  0
  3 32  1  0
  4 33  1  0
  5 34  1  0
  6 35  1  0
  8 36  1  0
  8 37  1  0
 10 38  1  0
 11 39  1  0
 12 40  1  0
 14 41  1  0
 15 42  1  0
 20 43  1  0
 21 44  1  0
 23 45  1  0
 24 46  1  0
 25 47  1  0
 26 48  1  0
 26 49  1  0
 27 50  1  0
M  END
>  <Energy>  (828) 
-165.96882702462034

>  <compound_id>  (828) 
2145

>  <target_id>  (828) 
1

>  <reference_id>  (828) 
188

>  <inspiration_ids>  (828) 
[188, 153]

>  <energy_score>  (828) 
-26.775455688451032

>  <distance_score>  (828) 
1.998273089369204

>  <path>  (828) 
/opt/xchem-fragalysis-2/maxwin/BulkDock/SCRATCH/505736/C2145-P188/C2145-P188.minimised.mol

>  <scratch_subdir>  (828) 
/opt/xchem-fragalysis-2/maxwin/BulkDock/SCRATCH/505736/C2145-P188

>  <fragmenstein_runtime>  (828) 
20.038930654525757

>  <fragmenstein_outcome>  (828) 
too moved

>  <fragmenstein_mode>  (828) 
expansion

>  <fragmenstein_error>  (828) 


$$$$
C2145-P153
     RDKit          3D

 50 53  0  0  0  0  0  0  0  0999 V2000
   -1.9801   -8.2845   31.6456 N   0  0  0  0  0  0  0  0  0  0  0  0
   -0.8091   -7.7294   32.2713 C   0  0  0  0  0  0  0  0  0  0  0  0
   -0.7750   -7.7751   33.7948 C   0  0  0  0  0  0  0  0  0  0  0  0
    0.5237   -7.1194   34.3090 C   0  0  0  0  0  0  0  0  0  0  0  0
    1.5315   -8.0440   34.6777 O   0  0  0  0  0  0  0  0  0  0  0  0
    1.1103   -6.2750   33.3003 N   0  0  0  0  0  0  0  0  0  0  0  0
    0.0685   -5.4945   32.6417 C   0  0  0  0  0  0  0  0  0  0  0  0
   -0.8443   -4.7754   33.6997 C   0  0  0  0  0  0  0  0  0  0  0  0
   -0.0001   -3.8977   34.5226 C   0  0  0  0  0  0  0  0  0  0  0  0
    0.1449   -3.7476   35.9185 C   0  0  0  0  0  0  0  0  0  0  0  0
    1.1659   -2.8438   36.0978 C   0  0  0  0  0  0  0  0  0  0  0  0
    1.6162   -2.4486   34.8559 N   0  0  0  0  0  0  0  0  0  0  0  0
    0.9435   -3.1327   33.8828 C   0  0  0  0  0  0  0  0  0  0  0  0
    1.2599   -3.1815   32.4197 C   0  0  0  0  0  0  0  0  0  0  0  0
    0.7498   -2.0208   31.6749 N   0  0  0  0  0  0  0  0  0  0  0  0
   -0.8932   -1.6750   31.5307 S   0  0  0  0  0  0  0  0  0  0  0  0
   -1.6736   -2.8791   31.3312 O   0  0  0  0  0  0  0  0  0  0  0  0
   -1.2475   -0.7018   32.5390 O   0  0  0  0  0  0  0  0  0  0  0  0
   -0.8836   -0.8176   29.9697 C   0  0  0  0  0  0  0  0  0  0  0  0
   -1.3140   -1.4709   28.8169 C   0  0  0  0  0  0  0  0  0  0  0  0
   -1.4955   -0.7351   27.6470 C   0  0  0  0  0  0  0  0  0  0  0  0
   -1.1990    0.6191   27.6211 C   0  0  0  0  0  0  0  0  0  0  0  0
   -1.5229    1.3418   26.5121 O   0  0  0  0  0  0  0  0  0  0  0  0
   -0.6460    1.2383   28.7306 C   0  0  0  0  0  0  0  0  0  0  0  0
   -0.5151    0.5286   29.9267 C   0  0  0  0  0  0  0  0  0  0  0  0
    0.8084   -4.4855   31.7216 C   0  0  0  0  0  0  0  0  0  0  0  0
   -0.6574   -6.4013   31.7558 N   0  0  0  0  0  0  0  0  0  0  0  0
   -2.1397   -9.2133   32.0431 H   0  0  0  0  0  0  0  0  0  0  0  0
   -2.8043   -7.7679   31.9297 H   0  0  0  0  0  0  0  0  0  0  0  0
    0.0162   -8.2978   31.8699 H   0  0  0  0  0  0  0  0  0  0  0  0
   -1.6670   -7.2874   34.1966 H   0  0  0  0  0  0  0  0  0  0  0  0
   -0.8631   -8.7764   34.1649 H   0  0  0  0  0  0  0  0  0  0  0  0
    0.3037   -6.5612   35.2241 H   0  0  0  0  0  0  0  0  0  0  0  0
    1.4076   -8.1783   35.6371 H   0  0  0  0  0  0  0  0  0  0  0  0
    1.5557   -6.8560   32.5991 H   0  0  0  0  0  0  0  0  0  0  0  0
   -1.4104   -5.4222   34.3626 H   0  0  0  0  0  0  0  0  0  0  0  0
   -1.5950   -4.1734   33.1934 H   0  0  0  0  0  0  0  0  0  0  0  0
   -0.4222   -4.2359   36.7001 H   0  0  0  0  0  0  0  0  0  0  0  0
    1.6062   -2.4322   36.9957 H   0  0  0  0  0  0  0  0  0  0  0  0
    2.3658   -1.7888   34.6960 H   0  0  0  0  0  0  0  0  0  0  0  0
    2.3545   -3.1337   32.3302 H   0  0  0  0  0  0  0  0  0  0  0  0
    1.2660   -1.8361   30.8155 H   0  0  0  0  0  0  0  0  0  0  0  0
   -1.5953   -2.5212   28.8253 H   0  0  0  0  0  0  0  0  0  0  0  0
   -1.9439   -1.2077   26.7779 H   0  0  0  0  0  0  0  0  0  0  0  0
   -1.8326    2.2192   26.8061 H   0  0  0  0  0  0  0  0  0  0  0  0
   -0.3450    2.2792   28.6690 H   0  0  0  0  0  0  0  0  0  0  0  0
   -0.1468    1.0301   30.8182 H   0  0  0  0  0  0  0  0  0  0  0  0
    0.2063   -4.2655   30.8310 H   0  0  0  0  0  0  0  0  0  0  0  0
    1.7007   -4.9623   31.2847 H   0  0  0  0  0  0  0  0  0  0  0  0
   -1.5686   -6.0084   31.5597 H   0  0  0  0  0  0  0  0  0  0  0  0
  1  2  1  0
  2  3  1  0
  3  4  1  0
  4  5  1  0
  4  6  1  0
  6  7  1  0
  7  8  1  0
  8  9  1  0
  9 10  1  0
 10 11  2  0
 11 12  1  0
 12 13  1  0
 13 14  1  0
 14 15  1  0
 15 16  1  0
 16 17  2  0
 16 18  2  0
 16 19  1  0
 19 20  2  0
 20 21  1  0
 21 22  2  0
 22 23  1  0
 22 24  1  0
 24 25  2  0
 14 26  1  0
  7 27  1  0
 27  2  1  0
 26  7  1  0
 13  9  2  0
 25 19  1  0
  1 28  1  0
  1 29  1  0
  2 30  1  0
  3 31  1  0
  3 32  1  0
  4 33  1  0
  5 34  1  0
  6 35  1  0
  8 36  1  0
  8 37  1  0
 10 38  1  0
 11 39  1  0
 12 40  1  0
 14 41  1  0
 15 42  1  0
 20 43  1  0
 21 44  1  0
 23 45  1  0
 24 46  1  0
 25 47  1  0
 26 48  1  0
 26 49  1  0
 27 50  1  0
M  END
>  <Energy>  (829) 
-165.40786877093382

>  <compound_id>  (829) 
2145

>  <target_id>  (829) 
1

>  <reference_id>  (829) 
153

>  <inspiration_ids>  (829) 
[188, 153]

>  <energy_score>  (829) 
-26.214497434765256

>  <distance_score>  (829) 
1.9288398745103814

>  <path>  (829) 
/opt/xchem-fragalysis-2/maxwin/BulkDock/SCRATCH/505736/C2145-P153/C2145-P153.minimised.mol

>  <scratch_subdir>  (829) 
/opt/xchem-fragalysis-2/maxwin/BulkDock/SCRATCH/505736/C2145-P153

>  <fragmenstein_runtime>  (829) 
20.352428436279297

>  <fragmenstein_outcome>  (829) 
too moved

>  <fragmenstein_mode>  (829) 
expansion

>  <fragmenstein_error>  (829) 


$$$$
C2873-P188
     RDKit          3D

 50 52  0  0  0  0  0  0  0  0999 V2000
   -1.0175   -4.6297   38.0808 C   0  0  0  0  0  0  0  0  0  0  0  0
   -0.2105   -5.8205   38.5226 C   0  0  0  0  0  0  0  0  0  0  0  0
   -0.1553   -6.1258   39.8981 C   0  0  0  0  0  0  0  0  0  0  0  0
    0.6348   -7.1721   40.3637 C   0  0  0  0  0  0  0  0  0  0  0  0
    1.3840   -7.9052   39.4584 C   0  0  0  0  0  0  0  0  0  0  0  0
    2.1702   -8.8943   39.9067 F   0  0  0  0  0  0  0  0  0  0  0  0
    1.3470   -7.6201   38.0964 C   0  0  0  0  0  0  0  0  0  0  0  0
    0.5364   -6.5944   37.6093 C   0  0  0  0  0  0  0  0  0  0  0  0
    0.4185   -6.3794   36.2274 N   0  0  0  0  0  0  0  0  0  0  0  0
    1.1890   -7.0170   35.0371 C   0  0  0  0  0  0  0  0  0  0  0  0
    2.0934   -7.7625   35.0296 O   0  0  0  0  0  0  0  0  0  0  0  0
    0.5636   -6.6532   33.7323 C   0  0  0  0  0  0  0  0  0  0  0  0
   -0.5589   -7.3438   33.3486 C   0  0  0  0  0  0  0  0  0  0  0  0
   -0.8645   -7.1863   32.0337 C   0  0  0  0  0  0  0  0  0  0  0  0
   -1.8564   -7.8797   31.4393 O   0  0  0  0  0  0  0  0  0  0  0  0
   -0.2242   -6.3994   31.1685 N   0  0  0  0  0  0  0  0  0  0  0  0
    0.8192   -5.7184   31.6646 C   0  0  0  0  0  0  0  0  0  0  0  0
    1.5482   -4.8102   30.7167 C   0  0  0  0  0  0  0  0  0  0  0  0
    0.6577   -3.6577   30.2686 C   0  0  0  0  0  0  0  0  0  0  0  0
    0.3612   -2.7788   31.4061 N   0  0  0  0  0  0  0  0  0  0  0  0
   -1.1207   -2.0177   31.5154 S   0  0  0  0  0  0  0  0  0  0  0  0
   -2.1598   -3.0201   31.3885 O   0  0  0  0  0  0  0  0  0  0  0  0
   -1.0563   -1.1461   32.6681 O   0  0  0  0  0  0  0  0  0  0  0  0
   -1.1129   -1.0000   30.0675 C   0  0  0  0  0  0  0  0  0  0  0  0
   -1.5728   -1.5278   28.8671 C   0  0  0  0  0  0  0  0  0  0  0  0
   -1.6971   -0.6953   27.7625 C   0  0  0  0  0  0  0  0  0  0  0  0
   -1.3483    0.6437   27.8484 C   0  0  0  0  0  0  0  0  0  0  0  0
   -1.5761    1.4870   26.8047 O   0  0  0  0  0  0  0  0  0  0  0  0
   -0.8124    1.1562   29.0185 C   0  0  0  0  0  0  0  0  0  0  0  0
   -0.7092    0.3366   30.1460 C   0  0  0  0  0  0  0  0  0  0  0  0
    1.2686   -5.8258   32.9265 N   0  0  0  0  0  0  0  0  0  0  0  0
   -1.6315   -4.2340   38.8964 H   0  0  0  0  0  0  0  0  0  0  0  0
   -1.6936   -4.8942   37.2636 H   0  0  0  0  0  0  0  0  0  0  0  0
   -0.3477   -3.8307   37.7470 H   0  0  0  0  0  0  0  0  0  0  0  0
   -0.7283   -5.5386   40.6136 H   0  0  0  0  0  0  0  0  0  0  0  0
    0.6804   -7.4112   41.4206 H   0  0  0  0  0  0  0  0  0  0  0  0
    1.9461   -8.2326   37.4350 H   0  0  0  0  0  0  0  0  0  0  0  0
   -0.2586   -5.7139   35.8746 H   0  0  0  0  0  0  0  0  0  0  0  0
   -1.0842   -8.0316   33.9933 H   0  0  0  0  0  0  0  0  0  0  0  0
   -1.7784   -7.4621   30.5627 H   0  0  0  0  0  0  0  0  0  0  0  0
    2.4575   -4.4274   31.1954 H   0  0  0  0  0  0  0  0  0  0  0  0
    1.8624   -5.3951   29.8445 H   0  0  0  0  0  0  0  0  0  0  0  0
   -0.2602   -4.0480   29.8176 H   0  0  0  0  0  0  0  0  0  0  0  0
    1.1852   -3.0712   29.5084 H   0  0  0  0  0  0  0  0  0  0  0  0
    1.1239   -2.2976   31.8814 H   0  0  0  0  0  0  0  0  0  0  0  0
   -1.8886   -2.5634   28.7849 H   0  0  0  0  0  0  0  0  0  0  0  0
   -2.1202   -1.0981   26.8513 H   0  0  0  0  0  0  0  0  0  0  0  0
   -2.3183    1.1154   26.2955 H   0  0  0  0  0  0  0  0  0  0  0  0
   -0.5263    2.2037   29.0611 H   0  0  0  0  0  0  0  0  0  0  0  0
   -0.3363    0.7540   31.0777 H   0  0  0  0  0  0  0  0  0  0  0  0
  1  2  1  0
  2  3  2  0
  3  4  1  0
  4  5  2  0
  5  6  1  0
  5  7  1  0
  7  8  2  0
  8  9  1  0
  9 10  1  0
 10 11  2  0
 10 12  1  0
 12 13  2  0
 13 14  1  0
 14 15  1  0
 14 16  2  0
 16 17  1  0
 17 18  1  0
 18 19  1  0
 19 20  1  0
 20 21  1  0
 21 22  2  0
 21 23  2  0
 21 24  1  0
 24 25  2  0
 25 26  1  0
 26 27  2  0
 27 28  1  0
 27 29  1  0
 29 30  2  0
 17 31  2  0
  8  2  1  0
 31 12  1  0
 30 24  1  0
  1 32  1  0
  1 33  1  0
  1 34  1  0
  3 35  1  0
  4 36  1  0
  7 37  1  0
  9 38  1  0
 13 39  1  0
 15 40  1  0
 18 41  1  0
 18 42  1  0
 19 43  1  0
 19 44  1  0
 20 45  1  0
 25 46  1  0
 26 47  1  0
 28 48  1  0
 29 49  1  0
 30 50  1  0
M  END
>  <Energy>  (830) 
-53.727012237431261

>  <compound_id>  (830) 
2873

>  <target_id>  (830) 
1

>  <reference_id>  (830) 
188

>  <inspiration_ids>  (830) 
[188, 158]

>  <energy_score>  (830) 
-46.83154735678694

>  <distance_score>  (830) 
0.8599889679231941

>  <path>  (830) 
/opt/xchem-fragalysis-2/maxwin/BulkDock/SCRATCH/505736/C2873-P188/C2873-P188.minimised.mol

>  <scratch_subdir>  (830) 
/opt/xchem-fragalysis-2/maxwin/BulkDock/SCRATCH/505736/C2873-P188

>  <fragmenstein_runtime>  (830) 
8.786487102508545

>  <fragmenstein_outcome>  (830) 
acceptable

>  <fragmenstein_mode>  (830) 
expansion

>  <fragmenstein_error>  (830) 


$$$$
C2873-P158
     RDKit          3D

 50 52  0  0  0  0  0  0  0  0999 V2000
    1.7645   -3.9858   37.7795 C   0  0  0  0  0  0  0  0  0  0  0  0
    1.3723   -5.2522   38.4862 C   0  0  0  0  0  0  0  0  0  0  0  0
    1.6115   -5.3783   39.8701 C   0  0  0  0  0  0  0  0  0  0  0  0
    1.2455   -6.5257   40.5689 C   0  0  0  0  0  0  0  0  0  0  0  0
    0.6298   -7.5582   39.8861 C   0  0  0  0  0  0  0  0  0  0  0  0
    0.2819   -8.6671   40.5510 F   0  0  0  0  0  0  0  0  0  0  0  0
    0.3664   -7.4472   38.5272 C   0  0  0  0  0  0  0  0  0  0  0  0
    0.7239   -6.2921   37.8184 C   0  0  0  0  0  0  0  0  0  0  0  0
    0.3825   -6.2296   36.4665 N   0  0  0  0  0  0  0  0  0  0  0  0
   -0.7482   -6.9206   35.6901 C   0  0  0  0  0  0  0  0  0  0  0  0
   -1.6231   -7.5922   36.0672 O   0  0  0  0  0  0  0  0  0  0  0  0
   -0.6438   -6.7838   34.2006 C   0  0  0  0  0  0  0  0  0  0  0  0
   -1.4812   -7.6317   33.5176 C   0  0  0  0  0  0  0  0  0  0  0  0
   -1.3617   -7.6190   32.1738 C   0  0  0  0  0  0  0  0  0  0  0  0
   -2.1209   -8.4720   31.4401 O   0  0  0  0  0  0  0  0  0  0  0  0
   -0.5302   -6.8254   31.5001 N   0  0  0  0  0  0  0  0  0  0  0  0
    0.2418   -6.0053   32.2397 C   0  0  0  0  0  0  0  0  0  0  0  0
    1.1776   -5.1262   31.4486 C   0  0  0  0  0  0  0  0  0  0  0  0
    0.4704   -3.9504   30.7918 C   0  0  0  0  0  0  0  0  0  0  0  0
    0.1719   -2.9241   31.7909 N   0  0  0  0  0  0  0  0  0  0  0  0
   -1.2519   -2.0559   31.7072 S   0  0  0  0  0  0  0  0  0  0  0  0
   -2.3467   -2.9951   31.5831 O   0  0  0  0  0  0  0  0  0  0  0  0
   -1.1943   -1.0784   32.7706 O   0  0  0  0  0  0  0  0  0  0  0  0
   -1.0563   -1.1956   30.1743 C   0  0  0  0  0  0  0  0  0  0  0  0
   -1.3484   -1.8680   28.9928 C   0  0  0  0  0  0  0  0  0  0  0  0
   -1.2624   -1.1966   27.7831 C   0  0  0  0  0  0  0  0  0  0  0  0
   -0.9198    0.1490   27.7617 C   0  0  0  0  0  0  0  0  0  0  0  0
   -1.0223    0.8675   26.6094 O   0  0  0  0  0  0  0  0  0  0  0  0
   -0.5635    0.8084   28.9289 C   0  0  0  0  0  0  0  0  0  0  0  0
   -0.6454    0.1407   30.1520 C   0  0  0  0  0  0  0  0  0  0  0  0
    0.2661   -5.9712   33.5995 N   0  0  0  0  0  0  0  0  0  0  0  0
    2.2869   -3.2957   38.4504 H   0  0  0  0  0  0  0  0  0  0  0  0
    0.8751   -3.4730   37.3994 H   0  0  0  0  0  0  0  0  0  0  0  0
    2.4404   -4.2081   36.9475 H   0  0  0  0  0  0  0  0  0  0  0  0
    2.0913   -4.5670   40.4152 H   0  0  0  0  0  0  0  0  0  0  0  0
    1.4336   -6.6172   41.6331 H   0  0  0  0  0  0  0  0  0  0  0  0
   -0.0999   -8.2895   38.0240 H   0  0  0  0  0  0  0  0  0  0  0  0
    0.9256   -5.6529   35.8317 H   0  0  0  0  0  0  0  0  0  0  0  0
   -2.1627   -8.3079   34.0180 H   0  0  0  0  0  0  0  0  0  0  0  0
   -2.7904   -8.8876   32.0289 H   0  0  0  0  0  0  0  0  0  0  0  0
    2.0011   -4.7893   32.0884 H   0  0  0  0  0  0  0  0  0  0  0  0
    1.6047   -5.7391   30.6497 H   0  0  0  0  0  0  0  0  0  0  0  0
   -0.4318   -4.2998   30.2846 H   0  0  0  0  0  0  0  0  0  0  0  0
    1.1338   -3.5063   30.0415 H   0  0  0  0  0  0  0  0  0  0  0  0
    0.9278   -2.4504   32.2816 H   0  0  0  0  0  0  0  0  0  0  0  0
   -1.6865   -2.8989   28.9994 H   0  0  0  0  0  0  0  0  0  0  0  0
   -1.5522   -1.7235   26.8812 H   0  0  0  0  0  0  0  0  0  0  0  0
   -1.4104    0.2646   25.9486 H   0  0  0  0  0  0  0  0  0  0  0  0
   -0.2497    1.8442   28.8773 H   0  0  0  0  0  0  0  0  0  0  0  0
   -0.4020    0.6672   31.0710 H   0  0  0  0  0  0  0  0  0  0  0  0
  1  2  1  0
  2  3  2  0
  3  4  1  0
  4  5  2  0
  5  6  1  0
  5  7  1  0
  7  8  2  0
  8  9  1  0
  9 10  1  0
 10 11  2  0
 10 12  1  0
 12 13  2  0
 13 14  1  0
 14 15  1  0
 14 16  2  0
 16 17  1  0
 17 18  1  0
 18 19  1  0
 19 20  1  0
 20 21  1  0
 21 22  2  0
 21 23  2  0
 21 24  1  0
 24 25  2  0
 25 26  1  0
 26 27  2  0
 27 28  1  0
 27 29  1  0
 29 30  2  0
 17 31  2  0
  8  2  1  0
 31 12  1  0
 30 24  1  0
  1 32  1  0
  1 33  1  0
  1 34  1  0
  3 35  1  0
  4 36  1  0
  7 37  1  0
  9 38  1  0
 13 39  1  0
 15 40  1  0
 18 41  1  0
 18 42  1  0
 19 43  1  0
 19 44  1  0
 20 45  1  0
 25 46  1  0
 26 47  1  0
 28 48  1  0
 29 49  1  0
 30 50  1  0
M  END
>  <Energy>  (831) 
-49.993489275281142

>  <compound_id>  (831) 
2873

>  <target_id>  (831) 
1

>  <reference_id>  (831) 
158

>  <inspiration_ids>  (831) 
[188, 158]

>  <energy_score>  (831) 
-43.09802439463574

>  <distance_score>  (831) 
1.1278156093906686

>  <path>  (831) 
/opt/xchem-fragalysis-2/maxwin/BulkDock/SCRATCH/505736/C2873-P158/C2873-P158.minimised.mol

>  <scratch_subdir>  (831) 
/opt/xchem-fragalysis-2/maxwin/BulkDock/SCRATCH/505736/C2873-P158

>  <fragmenstein_runtime>  (831) 
9.192657232284546

>  <fragmenstein_outcome>  (831) 
too moved

>  <fragmenstein_mode>  (831) 
expansion

>  <fragmenstein_error>  (831) 


$$$$
C2908-P188
     RDKit          3D

 60 62  0  0  0  0  0  0  0  0999 V2000
    2.6751   -8.4867   39.6535 C   0  0  0  0  0  0  0  0  0  0  0  0
    1.4074   -7.6570   39.7639 C   0  0  0  0  0  0  0  0  0  0  0  0
    1.2839   -6.6183   38.6466 C   0  0  0  0  0  0  0  0  0  0  0  0
    2.0381   -6.6227   37.7148 O   0  0  0  0  0  0  0  0  0  0  0  0
    0.1572   -5.7671   38.9418 N   0  0  0  0  0  0  0  0  0  0  0  0
   -0.3401   -4.6353   38.2794 C   0  0  0  0  0  0  0  0  0  0  0  0
   -1.3722   -3.9492   38.9299 C   0  0  0  0  0  0  0  0  0  0  0  0
   -1.9947   -2.8392   38.3403 C   0  0  0  0  0  0  0  0  0  0  0  0
   -1.6094   -2.3848   37.0742 C   0  0  0  0  0  0  0  0  0  0  0  0
   -2.3882   -1.2887   36.3681 C   0  0  0  0  0  0  0  0  0  0  0  0
   -1.6107   -0.0073   35.9923 C   0  0  0  0  0  0  0  0  0  0  0  0
   -2.3184    0.8270   35.0159 O   0  0  0  0  0  0  0  0  0  0  0  0
   -2.0882    0.3481   33.7530 C   0  0  0  0  0  0  0  0  0  0  0  0
   -3.0705   -0.4640   33.1951 C   0  0  0  0  0  0  0  0  0  0  0  0
   -2.6948   -1.3578   32.2134 C   0  0  0  0  0  0  0  0  0  0  0  0
   -1.3571   -1.3811   31.8127 C   0  0  0  0  0  0  0  0  0  0  0  0
   -0.6648   -2.9818   31.5095 S   0  0  0  0  0  0  0  0  0  0  0  0
   -1.7712   -3.9168   31.5132 O   0  0  0  0  0  0  0  0  0  0  0  0
    0.4470   -3.0915   32.4225 O   0  0  0  0  0  0  0  0  0  0  0  0
   -0.0623   -2.8942   29.9505 N   0  0  0  0  0  0  0  0  0  0  0  0
    0.2803   -4.2013   29.3293 C   0  0  0  0  0  0  0  0  0  0  0  0
    1.2727   -5.0870   30.0913 C   0  0  0  0  0  0  0  0  0  0  0  0
    0.6404   -5.9910   31.1211 C   0  0  0  0  0  0  0  0  0  0  0  0
    1.1111   -5.9108   32.3780 N   0  0  0  0  0  0  0  0  0  0  0  0
    0.4270   -6.5688   33.3292 C   0  0  0  0  0  0  0  0  0  0  0  0
   -0.6480   -7.3740   33.0597 C   0  0  0  0  0  0  0  0  0  0  0  0
   -0.9705   -7.4766   31.7312 C   0  0  0  0  0  0  0  0  0  0  0  0
   -1.9804   -8.2954   31.3178 O   0  0  0  0  0  0  0  0  0  0  0  0
   -0.3578   -6.8076   30.7419 N   0  0  0  0  0  0  0  0  0  0  0  0
   -0.4580   -0.3723   32.1704 C   0  0  0  0  0  0  0  0  0  0  0  0
   -0.8367    0.5154   33.1619 C   0  0  0  0  0  0  0  0  0  0  0  0
   -0.5638   -3.0663   36.4319 C   0  0  0  0  0  0  0  0  0  0  0  0
    0.0720   -4.1672   37.0286 C   0  0  0  0  0  0  0  0  0  0  0  0
    1.0689   -4.7178   36.2775 O   0  0  0  0  0  0  0  0  0  0  0  0
    2.7088   -9.2394   40.4471 H   0  0  0  0  0  0  0  0  0  0  0  0
    2.7318   -9.0012   38.6900 H   0  0  0  0  0  0  0  0  0  0  0  0
    3.5637   -7.8531   39.7438 H   0  0  0  0  0  0  0  0  0  0  0  0
    0.5326   -8.3151   39.7151 H   0  0  0  0  0  0  0  0  0  0  0  0
    1.4047   -7.1452   40.7330 H   0  0  0  0  0  0  0  0  0  0  0  0
   -0.2005   -5.9991   39.8607 H   0  0  0  0  0  0  0  0  0  0  0  0
   -1.7382   -4.2825   39.8989 H   0  0  0  0  0  0  0  0  0  0  0  0
   -2.8143   -2.3597   38.8720 H   0  0  0  0  0  0  0  0  0  0  0  0
   -2.8342   -1.7520   35.4826 H   0  0  0  0  0  0  0  0  0  0  0  0
   -3.2502   -0.9894   36.9790 H   0  0  0  0  0  0  0  0  0  0  0  0
   -0.5929   -0.2350   35.6515 H   0  0  0  0  0  0  0  0  0  0  0  0
   -1.4925    0.6095   36.8912 H   0  0  0  0  0  0  0  0  0  0  0  0
   -4.0471   -0.5507   33.6633 H   0  0  0  0  0  0  0  0  0  0  0  0
   -3.3773   -2.1623   31.9527 H   0  0  0  0  0  0  0  0  0  0  0  0
   -0.6497   -2.3261   29.3336 H   0  0  0  0  0  0  0  0  0  0  0  0
    0.7443   -3.9397   28.3710 H   0  0  0  0  0  0  0  0  0  0  0  0
   -0.6541   -4.7164   29.1015 H   0  0  0  0  0  0  0  0  0  0  0  0
    1.7781   -5.7440   29.3730 H   0  0  0  0  0  0  0  0  0  0  0  0
    2.0529   -4.4721   30.5551 H   0  0  0  0  0  0  0  0  0  0  0  0
    0.7841   -6.4229   34.3438 H   0  0  0  0  0  0  0  0  0  0  0  0
   -1.1659   -7.9008   33.8467 H   0  0  0  0  0  0  0  0  0  0  0  0
   -2.3974   -8.7136   32.0934 H   0  0  0  0  0  0  0  0  0  0  0  0
    0.5846   -0.4193   31.8601 H   0  0  0  0  0  0  0  0  0  0  0  0
   -0.1046    1.1916   33.5952 H   0  0  0  0  0  0  0  0  0  0  0  0
   -0.2478   -2.7694   35.4316 H   0  0  0  0  0  0  0  0  0  0  0  0
    1.5319   -5.4067   36.7941 H   0  0  0  0  0  0  0  0  0  0  0  0
  1  2  1  0
  2  3  1  0
  3  4  2  0
  3  5  1  0
  5  6  1  0
  6  7  2  0
  7  8  1  0
  8  9  2  0
  9 10  1  0
 10 11  1  0
 11 12  1  0
 12 13  1  0
 13 14  2  0
 14 15  1  0
 15 16  2  0
 16 17  1  0
 17 18  2  0
 17 19  2  0
 17 20  1  0
 20 21  1  0
 21 22  1  0
 22 23  1  0
 23 24  2  0
 24 25  1  0
 25 26  2  0
 26 27  1  0
 27 28  1  0
 27 29  2  0
 16 30  1  0
 30 31  2  0
  9 32  1  0
 32 33  2  0
 33 34  1  0
 33  6  1  0
 31 13  1  0
 29 23  1  0
  1 35  1  0
  1 36  1  0
  1 37  1  0
  2 38  1  0
  2 39  1  0
  5 40  1  0
  7 41  1  0
  8 42  1  0
 10 43  1  0
 10 44  1  0
 11 45  1  0
 11 46  1  0
 14 47  1  0
 15 48  1  0
 20 49  1  0
 21 50  1  0
 21 51  1  0
 22 52  1  0
 22 53  1  0
 25 54  1  0
 26 55  1  0
 28 56  1  0
 30 57  1  0
 31 58  1  0
 32 59  1  0
 34 60  1  0
M  END
>  <Energy>  (832) 
-26.734041402668634

>  <compound_id>  (832) 
2908

>  <target_id>  (832) 
1

>  <reference_id>  (832) 
188

>  <inspiration_ids>  (832) 
[188, 159]

>  <energy_score>  (832) 
-37.67049188010978

>  <distance_score>  (832) 
3.4357906361569577

>  <path>  (832) 
/opt/xchem-fragalysis-2/maxwin/BulkDock/SCRATCH/505736/C2908-P188/C2908-P188.minimised.mol

>  <scratch_subdir>  (832) 
/opt/xchem-fragalysis-2/maxwin/BulkDock/SCRATCH/505736/C2908-P188

>  <fragmenstein_runtime>  (832) 
20.21368718147278

>  <fragmenstein_outcome>  (832) 
too moved

>  <fragmenstein_mode>  (832) 
expansion

>  <fragmenstein_error>  (832) 


$$$$
C2908-P159
     RDKit          3D

 60 62  0  0  0  0  0  0  0  0999 V2000
    1.5125   -6.6335   41.6244 C   0  0  0  0  0  0  0  0  0  0  0  0
    0.6728   -7.3285   40.5684 C   0  0  0  0  0  0  0  0  0  0  0  0
    0.6414   -6.5394   39.2628 C   0  0  0  0  0  0  0  0  0  0  0  0
    1.2655   -6.9366   38.3186 O   0  0  0  0  0  0  0  0  0  0  0  0
   -0.1898   -5.3744   39.4169 N   0  0  0  0  0  0  0  0  0  0  0  0
   -0.5957   -4.4036   38.4898 C   0  0  0  0  0  0  0  0  0  0  0  0
   -1.5172   -3.4555   38.9564 C   0  0  0  0  0  0  0  0  0  0  0  0
   -2.0817   -2.4988   38.0991 C   0  0  0  0  0  0  0  0  0  0  0  0
   -1.7409   -2.4696   36.7450 C   0  0  0  0  0  0  0  0  0  0  0  0
   -2.4998   -1.6124   35.7491 C   0  0  0  0  0  0  0  0  0  0  0  0
   -2.2603   -0.0878   35.7842 C   0  0  0  0  0  0  0  0  0  0  0  0
   -2.9777    0.6419   34.7330 O   0  0  0  0  0  0  0  0  0  0  0  0
   -2.5020    0.2995   33.4958 C   0  0  0  0  0  0  0  0  0  0  0  0
   -3.3124   -0.5194   32.7095 C   0  0  0  0  0  0  0  0  0  0  0  0
   -2.7169   -1.2734   31.7157 C   0  0  0  0  0  0  0  0  0  0  0  0
   -1.3301   -1.1871   31.5743 C   0  0  0  0  0  0  0  0  0  0  0  0
   -0.4786   -2.7407   31.4432 S   0  0  0  0  0  0  0  0  0  0  0  0
   -1.4876   -3.7807   31.4639 O   0  0  0  0  0  0  0  0  0  0  0  0
    0.6016   -2.6797   32.4025 O   0  0  0  0  0  0  0  0  0  0  0  0
    0.2452   -2.6892   29.9336 N   0  0  0  0  0  0  0  0  0  0  0  0
    0.4569   -4.0175   29.3020 C   0  0  0  0  0  0  0  0  0  0  0  0
    1.4214   -4.9389   30.0586 C   0  0  0  0  0  0  0  0  0  0  0  0
    0.7309   -5.8423   31.0462 C   0  0  0  0  0  0  0  0  0  0  0  0
    0.8256   -5.5250   32.3472 N   0  0  0  0  0  0  0  0  0  0  0  0
    0.0539   -6.2101   33.2130 C   0  0  0  0  0  0  0  0  0  0  0  0
   -0.7303   -7.2626   32.8354 C   0  0  0  0  0  0  0  0  0  0  0  0
   -0.6361   -7.5753   31.5075 C   0  0  0  0  0  0  0  0  0  0  0  0
   -1.1815   -8.7374   31.0671 O   0  0  0  0  0  0  0  0  0  0  0  0
    0.0664   -6.9112   30.5810 N   0  0  0  0  0  0  0  0  0  0  0  0
   -0.5910   -0.1476   32.1499 C   0  0  0  0  0  0  0  0  0  0  0  0
   -1.1933    0.6100   33.1359 C   0  0  0  0  0  0  0  0  0  0  0  0
   -0.7668   -3.3792   36.2953 C   0  0  0  0  0  0  0  0  0  0  0  0
   -0.2002   -4.3340   37.1514 C   0  0  0  0  0  0  0  0  0  0  0  0
    0.7017   -5.1663   36.5537 O   0  0  0  0  0  0  0  0  0  0  0  0
    1.0853   -5.6656   41.9050 H   0  0  0  0  0  0  0  0  0  0  0  0
    1.5754   -7.2500   42.5263 H   0  0  0  0  0  0  0  0  0  0  0  0
    2.5290   -6.4543   41.2587 H   0  0  0  0  0  0  0  0  0  0  0  0
   -0.3512   -7.4850   40.9261 H   0  0  0  0  0  0  0  0  0  0  0  0
    1.0879   -8.3211   40.3577 H   0  0  0  0  0  0  0  0  0  0  0  0
   -0.6282   -5.3997   40.3308 H   0  0  0  0  0  0  0  0  0  0  0  0
   -1.8525   -3.4758   39.9915 H   0  0  0  0  0  0  0  0  0  0  0  0
   -2.8356   -1.8202   38.4922 H   0  0  0  0  0  0  0  0  0  0  0  0
   -2.2730   -1.9991   34.7501 H   0  0  0  0  0  0  0  0  0  0  0  0
   -3.5745   -1.8038   35.8728 H   0  0  0  0  0  0  0  0  0  0  0  0
   -1.1900    0.1507   35.7541 H   0  0  0  0  0  0  0  0  0  0  0  0
   -2.6342    0.3121   36.7339 H   0  0  0  0  0  0  0  0  0  0  0  0
   -4.3417   -0.7157   32.9961 H   0  0  0  0  0  0  0  0  0  0  0  0
   -3.2771   -2.0806   31.2504 H   0  0  0  0  0  0  0  0  0  0  0  0
    1.1173   -2.1621   29.9998 H   0  0  0  0  0  0  0  0  0  0  0  0
    0.9101   -3.7965   28.3301 H   0  0  0  0  0  0  0  0  0  0  0  0
   -0.5137   -4.4800   29.1076 H   0  0  0  0  0  0  0  0  0  0  0  0
    1.9342   -5.5854   29.3359 H   0  0  0  0  0  0  0  0  0  0  0  0
    2.2020   -4.3575   30.5631 H   0  0  0  0  0  0  0  0  0  0  0  0
    0.0979   -5.8750   34.2436 H   0  0  0  0  0  0  0  0  0  0  0  0
   -1.3177   -7.8402   33.5333 H   0  0  0  0  0  0  0  0  0  0  0  0
   -0.5335   -9.0170   30.3880 H   0  0  0  0  0  0  0  0  0  0  0  0
    0.4880   -0.0894   32.0230 H   0  0  0  0  0  0  0  0  0  0  0  0
   -0.5990    1.2974   33.7313 H   0  0  0  0  0  0  0  0  0  0  0  0
   -0.4742   -3.3866   35.2449 H   0  0  0  0  0  0  0  0  0  0  0  0
    1.0426   -5.8063   37.2108 H   0  0  0  0  0  0  0  0  0  0  0  0
  1  2  1  0
  2  3  1  0
  3  4  2  0
  3  5  1  0
  5  6  1  0
  6  7  2  0
  7  8  1  0
  8  9  2  0
  9 10  1  0
 10 11  1  0
 11 12  1  0
 12 13  1  0
 13 14  2  0
 14 15  1  0
 15 16  2  0
 16 17  1  0
 17 18  2  0
 17 19  2  0
 17 20  1  0
 20 21  1  0
 21 22  1  0
 22 23  1  0
 23 24  2  0
 24 25  1  0
 25 26  2  0
 26 27  1  0
 27 28  1  0
 27 29  2  0
 16 30  1  0
 30 31  2  0
  9 32  1  0
 32 33  2  0
 33 34  1  0
 33  6  1  0
 31 13  1  0
 29 23  1  0
  1 35  1  0
  1 36  1  0
  1 37  1  0
  2 38  1  0
  2 39  1  0
  5 40  1  0
  7 41  1  0
  8 42  1  0
 10 43  1  0
 10 44  1  0
 11 45  1  0
 11 46  1  0
 14 47  1  0
 15 48  1  0
 20 49  1  0
 21 50  1  0
 21 51  1  0
 22 52  1  0
 22 53  1  0
 25 54  1  0
 26 55  1  0
 28 56  1  0
 30 57  1  0
 31 58  1  0
 32 59  1  0
 34 60  1  0
M  END
>  <Energy>  (833) 
-30.850261843173978

>  <compound_id>  (833) 
2908

>  <target_id>  (833) 
1

>  <reference_id>  (833) 
159

>  <inspiration_ids>  (833) 
[188, 159]

>  <energy_score>  (833) 
-41.786712320614356

>  <distance_score>  (833) 
3.4757280709462988

>  <path>  (833) 
/opt/xchem-fragalysis-2/maxwin/BulkDock/SCRATCH/505736/C2908-P159/C2908-P159.minimised.mol

>  <scratch_subdir>  (833) 
/opt/xchem-fragalysis-2/maxwin/BulkDock/SCRATCH/505736/C2908-P159

>  <fragmenstein_runtime>  (833) 
16.803987503051758

>  <fragmenstein_outcome>  (833) 
too moved

>  <fragmenstein_mode>  (833) 
expansion

>  <fragmenstein_error>  (833) 


$$$$
C2875-P188
     RDKit          3D

 53 55  0  0  0  0  0  0  0  0999 V2000
    3.1679    2.9258   28.1065 C   0  0  0  0  0  0  0  0  0  0  0  0
    2.2266    3.3386   29.2388 C   0  0  0  0  0  0  0  0  0  0  0  0
    1.4280    4.5801   28.8691 C   0  0  0  0  0  0  0  0  0  0  0  0
    1.2433    2.2643   29.6265 C   0  0  0  0  0  0  0  0  0  0  0  0
    0.4039    1.7402   28.5313 N   0  0  0  0  0  0  0  0  0  0  0  0
    0.0092    0.4691   29.1027 C   0  0  0  0  0  0  0  0  0  0  0  0
   -0.6389   -0.6035   28.2165 C   0  0  0  0  0  0  0  0  0  0  0  0
   -1.0913   -1.8330   29.0636 C   0  0  0  0  0  0  0  0  0  0  0  0
   -1.0750   -1.5203   30.5659 C   0  0  0  0  0  0  0  0  0  0  0  0
   -1.3051   -2.7336   31.7838 S   0  0  0  0  0  0  0  0  0  0  0  0
   -2.2992   -3.6874   31.3799 O   0  0  0  0  0  0  0  0  0  0  0  0
   -1.3690   -2.0696   33.0671 O   0  0  0  0  0  0  0  0  0  0  0  0
    0.2198   -3.4399   31.7325 N   0  0  0  0  0  0  0  0  0  0  0  0
    0.6283   -4.1584   30.5069 C   0  0  0  0  0  0  0  0  0  0  0  0
    1.5307   -5.3208   30.8585 C   0  0  0  0  0  0  0  0  0  0  0  0
    0.7172   -6.2570   31.6966 C   0  0  0  0  0  0  0  0  0  0  0  0
    0.5510   -5.9212   32.9964 N   0  0  0  0  0  0  0  0  0  0  0  0
   -0.4036   -6.5896   33.6704 C   0  0  0  0  0  0  0  0  0  0  0  0
   -1.1580   -7.5781   33.0997 C   0  0  0  0  0  0  0  0  0  0  0  0
   -0.8528   -7.8555   31.7969 C   0  0  0  0  0  0  0  0  0  0  0  0
   -1.3983   -8.9141   31.1591 O   0  0  0  0  0  0  0  0  0  0  0  0
    0.0597   -7.2294   31.0579 N   0  0  0  0  0  0  0  0  0  0  0  0
   -1.8409   -0.2729   30.8197 C   0  0  0  0  0  0  0  0  0  0  0  0
   -1.0772    0.8331   30.1504 C   0  0  0  0  0  0  0  0  0  0  0  0
    1.3357    0.0028   29.5431 N   0  0  0  0  0  0  0  0  0  0  0  0
    1.8993    1.1551   30.2316 O   0  0  0  0  0  0  0  0  0  0  0  0
    3.7349    2.0285   28.3749 H   0  0  0  0  0  0  0  0  0  0  0  0
    2.6242    2.7206   27.1783 H   0  0  0  0  0  0  0  0  0  0  0  0
    3.8885    3.7242   27.8982 H   0  0  0  0  0  0  0  0  0  0  0  0
    2.8549    3.5713   30.1086 H   0  0  0  0  0  0  0  0  0  0  0  0
    0.8129    4.4273   27.9757 H   0  0  0  0  0  0  0  0  0  0  0  0
    0.7710    4.8963   29.6868 H   0  0  0  0  0  0  0  0  0  0  0  0
    2.1043    5.4160   28.6571 H   0  0  0  0  0  0  0  0  0  0  0  0
    0.6202    2.7187   30.4055 H   0  0  0  0  0  0  0  0  0  0  0  0
   -0.3874    2.3535   28.3606 H   0  0  0  0  0  0  0  0  0  0  0  0
   -1.5067   -0.1899   27.6867 H   0  0  0  0  0  0  0  0  0  0  0  0
    0.0668   -0.9323   27.4516 H   0  0  0  0  0  0  0  0  0  0  0  0
   -2.0898   -2.1383   28.7429 H   0  0  0  0  0  0  0  0  0  0  0  0
   -0.4441   -2.6676   28.8025 H   0  0  0  0  0  0  0  0  0  0  0  0
   -0.0690   -1.2808   30.8768 H   0  0  0  0  0  0  0  0  0  0  0  0
    0.3583   -3.9681   32.6080 H   0  0  0  0  0  0  0  0  0  0  0  0
   -0.2445   -4.5235   29.9556 H   0  0  0  0  0  0  0  0  0  0  0  0
    1.1912   -3.4659   29.8736 H   0  0  0  0  0  0  0  0  0  0  0  0
    2.4109   -4.9886   31.4200 H   0  0  0  0  0  0  0  0  0  0  0  0
    1.8764   -5.8156   29.9454 H   0  0  0  0  0  0  0  0  0  0  0  0
   -0.5484   -6.3013   34.7082 H   0  0  0  0  0  0  0  0  0  0  0  0
   -1.8959   -8.1355   33.6553 H   0  0  0  0  0  0  0  0  0  0  0  0
   -0.6799   -9.1157   30.5263 H   0  0  0  0  0  0  0  0  0  0  0  0
   -2.8472   -0.3411   30.4224 H   0  0  0  0  0  0  0  0  0  0  0  0
   -1.9648   -0.0368   31.8822 H   0  0  0  0  0  0  0  0  0  0  0  0
   -1.8229    1.4381   29.6252 H   0  0  0  0  0  0  0  0  0  0  0  0
   -0.6442    1.3930   30.9820 H   0  0  0  0  0  0  0  0  0  0  0  0
    1.3669   -0.6853   30.2775 H   0  0  0  0  0  0  0  0  0  0  0  0
  1  2  1  0
  2  3  1  0
  2  4  1  0
  4  5  1  0
  5  6  1  0
  6  7  1  0
  7  8  1  0
  8  9  1  0
  9 10  1  0
 10 11  2  0
 10 12  2  0
 10 13  1  0
 13 14  1  0
 14 15  1  0
 15 16  1  0
 16 17  2  0
 17 18  1  0
 18 19  2  0
 19 20  1  0
 20 21  1  0
 20 22  2  0
  9 23  1  0
 23 24  1  0
  6 25  1  0
 25 26  1  0
 26  4  1  0
 24  6  1  0
 22 16  1  0
  1 27  1  0
  1 28  1  0
  1 29  1  0
  2 30  1  0
  3 31  1  0
  3 32  1  0
  3 33  1  0
  4 34  1  0
  5 35  1  0
  7 36  1  0
  7 37  1  0
  8 38  1  0
  8 39  1  0
  9 40  1  0
 13 41  1  0
 14 42  1  0
 14 43  1  0
 15 44  1  0
 15 45  1  0
 18 46  1  0
 19 47  1  0
 21 48  1  0
 23 49  1  0
 23 50  1  0
 24 51  1  0
 24 52  1  0
 25 53  1  0
M  END
>  <Energy>  (834) 
-80.264529643122543

>  <compound_id>  (834) 
2875

>  <target_id>  (834) 
1

>  <reference_id>  (834) 
188

>  <inspiration_ids>  (834) 
[188, 163]

>  <energy_score>  (834) 
-51.55605173902376

>  <distance_score>  (834) 
1.5408672065616154

>  <path>  (834) 
/opt/xchem-fragalysis-2/maxwin/BulkDock/SCRATCH/505736/C2875-P188/C2875-P188.minimised.mol

>  <scratch_subdir>  (834) 
/opt/xchem-fragalysis-2/maxwin/BulkDock/SCRATCH/505736/C2875-P188

>  <fragmenstein_runtime>  (834) 
15.848736047744751

>  <fragmenstein_outcome>  (834) 
too moved

>  <fragmenstein_mode>  (834) 
expansion

>  <fragmenstein_error>  (834) 


$$$$
C2875-P163
     RDKit          3D

 53 55  0  0  0  0  0  0  0  0999 V2000
    3.2071    2.7126   28.2994 C   0  0  0  0  0  0  0  0  0  0  0  0
    2.2369    3.2259   29.3648 C   0  0  0  0  0  0  0  0  0  0  0  0
    1.5560    4.5096   28.9171 C   0  0  0  0  0  0  0  0  0  0  0  0
    1.1556    2.2374   29.7259 C   0  0  0  0  0  0  0  0  0  0  0  0
    0.3409    1.7492   28.5889 N   0  0  0  0  0  0  0  0  0  0  0  0
   -0.1406    0.5030   29.1311 C   0  0  0  0  0  0  0  0  0  0  0  0
   -0.7624   -0.5792   28.2383 C   0  0  0  0  0  0  0  0  0  0  0  0
   -1.1685   -1.8182   29.0992 C   0  0  0  0  0  0  0  0  0  0  0  0
   -1.0657   -1.5263   30.6085 C   0  0  0  0  0  0  0  0  0  0  0  0
   -1.3163   -2.7741   31.7948 S   0  0  0  0  0  0  0  0  0  0  0  0
   -2.3786   -3.6499   31.3805 O   0  0  0  0  0  0  0  0  0  0  0  0
   -1.3263   -2.1432   33.0977 O   0  0  0  0  0  0  0  0  0  0  0  0
    0.1491   -3.5445   31.6978 N   0  0  0  0  0  0  0  0  0  0  0  0
    0.6189   -4.1839   30.4702 C   0  0  0  0  0  0  0  0  0  0  0  0
    1.5481   -5.3317   30.8219 C   0  0  0  0  0  0  0  0  0  0  0  0
    0.7820   -6.2911   31.6793 C   0  0  0  0  0  0  0  0  0  0  0  0
    0.7551   -6.0508   33.0074 N   0  0  0  0  0  0  0  0  0  0  0  0
   -0.2054   -6.6788   33.7083 C   0  0  0  0  0  0  0  0  0  0  0  0
   -1.0599   -7.5886   33.1473 C   0  0  0  0  0  0  0  0  0  0  0  0
   -0.8459   -7.8288   31.8194 C   0  0  0  0  0  0  0  0  0  0  0  0
   -1.4666   -8.8455   31.1819 O   0  0  0  0  0  0  0  0  0  0  0  0
    0.0431   -7.2104   31.0458 N   0  0  0  0  0  0  0  0  0  0  0  0
   -1.8218   -0.2815   30.9493 C   0  0  0  0  0  0  0  0  0  0  0  0
   -1.2388    0.8511   30.1596 C   0  0  0  0  0  0  0  0  0  0  0  0
    1.1204   -0.0315   29.6663 N   0  0  0  0  0  0  0  0  0  0  0  0
    1.7118    1.0956   30.3729 O   0  0  0  0  0  0  0  0  0  0  0  0
    3.6949    1.7881   28.6248 H   0  0  0  0  0  0  0  0  0  0  0  0
    2.7014    2.5147   27.3484 H   0  0  0  0  0  0  0  0  0  0  0  0
    3.9921    3.4525   28.1090 H   0  0  0  0  0  0  0  0  0  0  0  0
    2.8319    3.4387   30.2628 H   0  0  0  0  0  0  0  0  0  0  0  0
    0.8790    4.8967   29.6866 H   0  0  0  0  0  0  0  0  0  0  0  0
    2.3032    5.2876   28.7238 H   0  0  0  0  0  0  0  0  0  0  0  0
    0.9827    4.3753   27.9935 H   0  0  0  0  0  0  0  0  0  0  0  0
    0.5267    2.7467   30.4650 H   0  0  0  0  0  0  0  0  0  0  0  0
   -0.4212    2.3982   28.4074 H   0  0  0  0  0  0  0  0  0  0  0  0
   -1.6447   -0.1911   27.7141 H   0  0  0  0  0  0  0  0  0  0  0  0
   -0.0531   -0.8916   27.4684 H   0  0  0  0  0  0  0  0  0  0  0  0
   -2.1764   -2.1341   28.8252 H   0  0  0  0  0  0  0  0  0  0  0  0
   -0.5266   -2.6477   28.8029 H   0  0  0  0  0  0  0  0  0  0  0  0
   -0.0277   -1.3299   30.8714 H   0  0  0  0  0  0  0  0  0  0  0  0
    0.8396   -3.2170   32.3746 H   0  0  0  0  0  0  0  0  0  0  0  0
   -0.2260   -4.5564   29.8820 H   0  0  0  0  0  0  0  0  0  0  0  0
    1.1816   -3.4566   29.8773 H   0  0  0  0  0  0  0  0  0  0  0  0
    2.4296   -4.9736   31.3662 H   0  0  0  0  0  0  0  0  0  0  0  0
    1.8971   -5.8254   29.9091 H   0  0  0  0  0  0  0  0  0  0  0  0
   -0.2659   -6.4250   34.7625 H   0  0  0  0  0  0  0  0  0  0  0  0
   -1.7982   -8.1216   33.7248 H   0  0  0  0  0  0  0  0  0  0  0  0
   -0.7996   -9.0244   30.4890 H   0  0  0  0  0  0  0  0  0  0  0  0
   -2.8836   -0.3858   30.7522 H   0  0  0  0  0  0  0  0  0  0  0  0
   -1.7604   -0.0327   32.0155 H   0  0  0  0  0  0  0  0  0  0  0  0
   -2.0573    1.3348   29.6155 H   0  0  0  0  0  0  0  0  0  0  0  0
   -0.8629    1.5239   30.9290 H   0  0  0  0  0  0  0  0  0  0  0  0
    1.7594   -0.1220   28.8729 H   0  0  0  0  0  0  0  0  0  0  0  0
  1  2  1  0
  2  3  1  0
  2  4  1  0
  4  5  1  0
  5  6  1  0
  6  7  1  0
  7  8  1  0
  8  9  1  0
  9 10  1  0
 10 11  2  0
 10 12  2  0
 10 13  1  0
 13 14  1  0
 14 15  1  0
 15 16  1  0
 16 17  2  0
 17 18  1  0
 18 19  2  0
 19 20  1  0
 20 21  1  0
 20 22  2  0
  9 23  1  0
 23 24  1  0
  6 25  1  0
 25 26  1  0
 26  4  1  0
 24  6  1  0
 22 16  1  0
  1 27  1  0
  1 28  1  0
  1 29  1  0
  2 30  1  0
  3 31  1  0
  3 32  1  0
  3 33  1  0
  4 34  1  0
  5 35  1  0
  7 36  1  0
  7 37  1  0
  8 38  1  0
  8 39  1  0
  9 40  1  0
 13 41  1  0
 14 42  1  0
 14 43  1  0
 15 44  1  0
 15 45  1  0
 18 46  1  0
 19 47  1  0
 21 48  1  0
 23 49  1  0
 23 50  1  0
 24 51  1  0
 24 52  1  0
 25 53  1  0
M  END
>  <Energy>  (835) 
-91.026752285493103

>  <compound_id>  (835) 
2875

>  <target_id>  (835) 
1

>  <reference_id>  (835) 
163

>  <inspiration_ids>  (835) 
[188, 163]

>  <energy_score>  (835) 
-62.318274381396265

>  <distance_score>  (835) 
1.4623800598245975

>  <path>  (835) 
/opt/xchem-fragalysis-2/maxwin/BulkDock/SCRATCH/505736/C2875-P163/C2875-P163.minimised.mol

>  <scratch_subdir>  (835) 
/opt/xchem-fragalysis-2/maxwin/BulkDock/SCRATCH/505736/C2875-P163

>  <fragmenstein_runtime>  (835) 
15.599015951156616

>  <fragmenstein_outcome>  (835) 
too moved

>  <fragmenstein_mode>  (835) 
expansion

>  <fragmenstein_error>  (835) 


$$$$
C2876-P188
     RDKit          3D

 37 39  0  0  0  0  0  0  0  0999 V2000
   -2.1863   -2.9768   31.2600 O   0  0  0  0  0  0  0  0  0  0  0  0
   -1.1092   -2.0185   31.3882 S   0  0  0  0  0  0  0  0  0  0  0  0
   -0.9831   -1.1933   32.5718 O   0  0  0  0  0  0  0  0  0  0  0  0
    0.3349   -2.8191   31.2125 N   0  0  0  0  0  0  0  0  0  0  0  0
    0.6126   -3.6482   30.0407 C   0  0  0  0  0  0  0  0  0  0  0  0
    1.4472   -4.8630   30.4312 C   0  0  0  0  0  0  0  0  0  0  0  0
    0.6148   -5.8993   31.0968 C   0  0  0  0  0  0  0  0  0  0  0  0
    0.0825   -6.9489   30.4952 N   0  0  0  0  0  0  0  0  0  0  0  0
   -0.6225   -7.5761   31.4673 C   0  0  0  0  0  0  0  0  0  0  0  0
   -1.2328   -8.7461   31.2756 O   0  0  0  0  0  0  0  0  0  0  0  0
   -0.5130   -6.9493   32.6802 C   0  0  0  0  0  0  0  0  0  0  0  0
   -0.9664   -7.1775   33.9906 C   0  0  0  0  0  0  0  0  0  0  0  0
   -0.5344   -6.3742   34.9669 C   0  0  0  0  0  0  0  0  0  0  0  0
    0.3758   -5.2707   34.5782 C   0  0  0  0  0  0  0  0  0  0  0  0
    0.8233   -5.0192   33.3863 N   0  0  0  0  0  0  0  0  0  0  0  0
    0.3260   -5.8821   32.4485 N   0  0  0  0  0  0  0  0  0  0  0  0
   -1.1115   -0.9367   29.9822 C   0  0  0  0  0  0  0  0  0  0  0  0
   -1.5635   -1.4115   28.7551 C   0  0  0  0  0  0  0  0  0  0  0  0
   -1.6845   -0.5302   27.6847 C   0  0  0  0  0  0  0  0  0  0  0  0
   -1.3705    0.8088   27.8359 C   0  0  0  0  0  0  0  0  0  0  0  0
   -1.6404    1.6566   26.8050 O   0  0  0  0  0  0  0  0  0  0  0  0
   -0.8462    1.2733   29.0316 C   0  0  0  0  0  0  0  0  0  0  0  0
   -0.7247    0.4002   30.1189 C   0  0  0  0  0  0  0  0  0  0  0  0
    1.0584   -2.6130   31.8984 H   0  0  0  0  0  0  0  0  0  0  0  0
    1.1844   -3.0403   29.3307 H   0  0  0  0  0  0  0  0  0  0  0  0
   -0.3103   -3.9681   29.5469 H   0  0  0  0  0  0  0  0  0  0  0  0
    1.8765   -5.3016   29.5219 H   0  0  0  0  0  0  0  0  0  0  0  0
    2.2924   -4.5753   31.0675 H   0  0  0  0  0  0  0  0  0  0  0  0
   -0.7234   -9.1901   30.5707 H   0  0  0  0  0  0  0  0  0  0  0  0
   -1.6444   -7.9982   34.1980 H   0  0  0  0  0  0  0  0  0  0  0  0
   -0.8376   -6.4817   35.9997 H   0  0  0  0  0  0  0  0  0  0  0  0
    0.6971   -4.6216   35.4098 H   0  0  0  0  0  0  0  0  0  0  0  0
   -1.8768   -2.4429   28.6239 H   0  0  0  0  0  0  0  0  0  0  0  0
   -2.1042   -0.8768   26.7482 H   0  0  0  0  0  0  0  0  0  0  0  0
   -2.0266    2.4662   27.1919 H   0  0  0  0  0  0  0  0  0  0  0  0
   -0.5540    2.3149   29.1271 H   0  0  0  0  0  0  0  0  0  0  0  0
   -0.3482    0.7742   31.0674 H   0  0  0  0  0  0  0  0  0  0  0  0
  1  2  2  0
  2  3  2  0
  2  4  1  0
  4  5  1  0
  5  6  1  0
  6  7  1  0
  7  8  2  0
  8  9  1  0
  9 10  1  0
  9 11  2  0
 11 12  1  0
 12 13  2  0
 13 14  1  0
 14 15  2  0
 15 16  1  0
  2 17  1  0
 17 18  2  0
 18 19  1  0
 19 20  2  0
 20 21  1  0
 20 22  1  0
 22 23  2  0
 16  7  1  0
 23 17  1  0
 16 11  1  0
  4 24  1  0
  5 25  1  0
  5 26  1  0
  6 27  1  0
  6 28  1  0
 10 29  1  0
 12 30  1  0
 13 31  1  0
 14 32  1  0
 18 33  1  0
 19 34  1  0
 21 35  1  0
 22 36  1  0
 23 37  1  0
M  END
>  <Energy>  (836) 
-57.507743736932184

>  <compound_id>  (836) 
2876

>  <target_id>  (836) 
1

>  <reference_id>  (836) 
188

>  <inspiration_ids>  (836) 
[188, 164]

>  <energy_score>  (836) 
-53.24088619615833

>  <distance_score>  (836) 
0.6956712804331566

>  <path>  (836) 
/opt/xchem-fragalysis-2/maxwin/BulkDock/SCRATCH/505736/C2876-P188/C2876-P188.minimised.mol

>  <scratch_subdir>  (836) 
/opt/xchem-fragalysis-2/maxwin/BulkDock/SCRATCH/505736/C2876-P188

>  <fragmenstein_runtime>  (836) 
2.0781190395355225

>  <fragmenstein_outcome>  (836) 
acceptable

>  <fragmenstein_mode>  (836) 
expansion

>  <fragmenstein_error>  (836) 


$$$$
C2876-P164
     RDKit          3D

 37 39  0  0  0  0  0  0  0  0999 V2000
   -2.1528   -2.9430   31.3045 O   0  0  0  0  0  0  0  0  0  0  0  0
   -1.0605   -2.0018   31.4290 S   0  0  0  0  0  0  0  0  0  0  0  0
   -0.9158   -1.1824   32.6139 O   0  0  0  0  0  0  0  0  0  0  0  0
    0.3671   -2.8357   31.2553 N   0  0  0  0  0  0  0  0  0  0  0  0
    0.6249   -3.6752   30.0865 C   0  0  0  0  0  0  0  0  0  0  0  0
    1.4676   -4.8874   30.4737 C   0  0  0  0  0  0  0  0  0  0  0  0
    0.6467   -5.9380   31.1348 C   0  0  0  0  0  0  0  0  0  0  0  0
    0.1270   -6.9932   30.5305 N   0  0  0  0  0  0  0  0  0  0  0  0
   -0.5934   -7.6182   31.4949 C   0  0  0  0  0  0  0  0  0  0  0  0
   -1.2323   -8.7732   31.2992 O   0  0  0  0  0  0  0  0  0  0  0  0
   -0.4837   -6.9984   32.7113 C   0  0  0  0  0  0  0  0  0  0  0  0
   -0.9443   -7.2330   34.0188 C   0  0  0  0  0  0  0  0  0  0  0  0
   -0.5262   -6.4237   34.9969 C   0  0  0  0  0  0  0  0  0  0  0  0
    0.3801   -5.3130   34.6142 C   0  0  0  0  0  0  0  0  0  0  0  0
    0.8358   -5.0622   33.4254 N   0  0  0  0  0  0  0  0  0  0  0  0
    0.3510   -5.9259   32.4854 N   0  0  0  0  0  0  0  0  0  0  0  0
   -1.0477   -0.9179   30.0238 C   0  0  0  0  0  0  0  0  0  0  0  0
   -1.4589   -1.3995   28.7859 C   0  0  0  0  0  0  0  0  0  0  0  0
   -1.5714   -0.5217   27.7120 C   0  0  0  0  0  0  0  0  0  0  0  0
   -1.2845    0.8240   27.8663 C   0  0  0  0  0  0  0  0  0  0  0  0
   -1.5370    1.6570   26.8184 O   0  0  0  0  0  0  0  0  0  0  0  0
   -0.8088    1.3003   29.0784 C   0  0  0  0  0  0  0  0  0  0  0  0
   -0.6970    0.4281   30.1692 C   0  0  0  0  0  0  0  0  0  0  0  0
    1.1113   -2.5937   31.9066 H   0  0  0  0  0  0  0  0  0  0  0  0
    1.1851   -3.0742   29.3615 H   0  0  0  0  0  0  0  0  0  0  0  0
   -0.3061   -4.0014   29.6128 H   0  0  0  0  0  0  0  0  0  0  0  0
    1.8997   -5.3190   29.5623 H   0  0  0  0  0  0  0  0  0  0  0  0
    2.3115   -4.5965   31.1105 H   0  0  0  0  0  0  0  0  0  0  0  0
   -0.7468   -9.2280   30.5819 H   0  0  0  0  0  0  0  0  0  0  0  0
   -1.6206   -8.0578   34.2175 H   0  0  0  0  0  0  0  0  0  0  0  0
   -0.8395   -6.5218   36.0277 H   0  0  0  0  0  0  0  0  0  0  0  0
    0.6900   -4.6602   35.4474 H   0  0  0  0  0  0  0  0  0  0  0  0
   -1.7509   -2.4354   28.6496 H   0  0  0  0  0  0  0  0  0  0  0  0
   -1.9588   -0.8803   26.7654 H   0  0  0  0  0  0  0  0  0  0  0  0
   -1.7482    2.5389   27.1766 H   0  0  0  0  0  0  0  0  0  0  0  0
   -0.5438    2.3480   29.1873 H   0  0  0  0  0  0  0  0  0  0  0  0
   -0.3549    0.8106   31.1274 H   0  0  0  0  0  0  0  0  0  0  0  0
  1  2  2  0
  2  3  2  0
  2  4  1  0
  4  5  1  0
  5  6  1  0
  6  7  1  0
  7  8  2  0
  8  9  1  0
  9 10  1  0
  9 11  2  0
 11 12  1  0
 12 13  2  0
 13 14  1  0
 14 15  2  0
 15 16  1  0
  2 17  1  0
 17 18  2  0
 18 19  1  0
 19 20  2  0
 20 21  1  0
 20 22  1  0
 22 23  2  0
 16  7  1  0
 23 17  1  0
 16 11  1  0
  4 24  1  0
  5 25  1  0
  5 26  1  0
  6 27  1  0
  6 28  1  0
 10 29  1  0
 12 30  1  0
 13 31  1  0
 14 32  1  0
 18 33  1  0
 19 34  1  0
 21 35  1  0
 22 36  1  0
 23 37  1  0
M  END
>  <Energy>  (837) 
-58.340929131623852

>  <compound_id>  (837) 
2876

>  <target_id>  (837) 
1

>  <reference_id>  (837) 
164

>  <inspiration_ids>  (837) 
[188, 164]

>  <energy_score>  (837) 
-54.07407159084971

>  <distance_score>  (837) 
0.7234632465626283

>  <path>  (837) 
/opt/xchem-fragalysis-2/maxwin/BulkDock/SCRATCH/505736/C2876-P164/C2876-P164.minimised.mol

>  <scratch_subdir>  (837) 
/opt/xchem-fragalysis-2/maxwin/BulkDock/SCRATCH/505736/C2876-P164

>  <fragmenstein_runtime>  (837) 
2.0933399200439453

>  <fragmenstein_outcome>  (837) 
acceptable

>  <fragmenstein_mode>  (837) 
expansion

>  <fragmenstein_error>  (837) 


$$$$
C2909-P188
     RDKit          3D

 50 52  0  0  0  0  0  0  0  0999 V2000
    3.0698   -4.4274   34.7673 C   0  0  0  0  0  0  0  0  0  0  0  0
    2.0911   -5.4405   35.3705 C   0  0  0  0  0  0  0  0  0  0  0  0
    2.8208   -6.3671   36.3270 C   0  0  0  0  0  0  0  0  0  0  0  0
    1.0854   -4.7424   36.0658 O   0  0  0  0  0  0  0  0  0  0  0  0
    0.0078   -4.6933   35.2334 C   0  0  0  0  0  0  0  0  0  0  0  0
   -0.9597   -3.9914   35.4673 O   0  0  0  0  0  0  0  0  0  0  0  0
    0.2584   -5.6202   34.0372 C   0  0  0  0  0  0  0  0  0  0  0  0
   -0.8839   -6.6021   33.9110 C   0  0  0  0  0  0  0  0  0  0  0  0
   -0.7562   -7.4130   32.6382 C   0  0  0  0  0  0  0  0  0  0  0  0
   -1.9595   -8.1406   32.4691 O   0  0  0  0  0  0  0  0  0  0  0  0
   -0.4542   -6.6452   31.4278 N   0  0  0  0  0  0  0  0  0  0  0  0
   -0.2503   -7.8356   29.9975 Br  0  0  0  0  0  0  0  0  0  0  0  0
    0.7040   -5.7827   31.6722 C   0  0  0  0  0  0  0  0  0  0  0  0
    1.1927   -4.9299   30.4707 C   0  0  0  0  0  0  0  0  0  0  0  0
    0.2448   -3.8250   30.0224 C   0  0  0  0  0  0  0  0  0  0  0  0
    0.3423   -2.7090   30.9846 N   0  0  0  0  0  0  0  0  0  0  0  0
   -1.0765   -1.8516   31.3126 S   0  0  0  0  0  0  0  0  0  0  0  0
   -2.2103   -2.7485   31.2907 O   0  0  0  0  0  0  0  0  0  0  0  0
   -0.7868   -1.0039   32.4487 O   0  0  0  0  0  0  0  0  0  0  0  0
   -1.1388   -0.7990   29.8864 C   0  0  0  0  0  0  0  0  0  0  0  0
   -1.5842   -1.3084   28.6731 C   0  0  0  0  0  0  0  0  0  0  0  0
   -1.7193   -0.4466   27.5888 C   0  0  0  0  0  0  0  0  0  0  0  0
   -1.4267    0.9008   27.7136 C   0  0  0  0  0  0  0  0  0  0  0  0
   -1.7162    1.7241   26.6688 O   0  0  0  0  0  0  0  0  0  0  0  0
   -0.9044    1.3965   28.8959 C   0  0  0  0  0  0  0  0  0  0  0  0
   -0.7626    0.5437   29.9944 C   0  0  0  0  0  0  0  0  0  0  0  0
    0.3795   -4.9064   32.7827 N   0  0  0  0  0  0  0  0  0  0  0  0
    1.4994   -6.2505   34.3538 O   0  0  0  0  0  0  0  0  0  0  0  0
    3.6039   -3.8834   35.5542 H   0  0  0  0  0  0  0  0  0  0  0  0
    3.7978   -4.9232   34.1167 H   0  0  0  0  0  0  0  0  0  0  0  0
    2.5562   -3.6703   34.1679 H   0  0  0  0  0  0  0  0  0  0  0  0
    3.6005   -6.9396   35.8130 H   0  0  0  0  0  0  0  0  0  0  0  0
    2.1234   -7.0928   36.7622 H   0  0  0  0  0  0  0  0  0  0  0  0
    3.2691   -5.8140   37.1591 H   0  0  0  0  0  0  0  0  0  0  0  0
   -1.8386   -6.0751   33.9085 H   0  0  0  0  0  0  0  0  0  0  0  0
   -0.9161   -7.2822   34.7726 H   0  0  0  0  0  0  0  0  0  0  0  0
    0.0402   -8.1315   32.8149 H   0  0  0  0  0  0  0  0  0  0  0  0
   -1.7520   -8.9098   31.9196 H   0  0  0  0  0  0  0  0  0  0  0  0
    1.5707   -6.4015   31.9344 H   0  0  0  0  0  0  0  0  0  0  0  0
    1.4096   -5.5767   29.6139 H   0  0  0  0  0  0  0  0  0  0  0  0
    2.1619   -4.4836   30.7377 H   0  0  0  0  0  0  0  0  0  0  0  0
    0.5581   -3.4549   29.0400 H   0  0  0  0  0  0  0  0  0  0  0  0
   -0.7688   -4.2175   29.9292 H   0  0  0  0  0  0  0  0  0  0  0  0
    1.1197   -2.0694   30.8219 H   0  0  0  0  0  0  0  0  0  0  0  0
   -1.8843   -2.3462   28.5641 H   0  0  0  0  0  0  0  0  0  0  0  0
   -2.1375   -0.8132   26.6598 H   0  0  0  0  0  0  0  0  0  0  0  0
   -2.0515    2.5615   27.0444 H   0  0  0  0  0  0  0  0  0  0  0  0
   -0.6365    2.4462   28.9768 H   0  0  0  0  0  0  0  0  0  0  0  0
   -0.3854    0.9422   30.9330 H   0  0  0  0  0  0  0  0  0  0  0  0
    0.9871   -4.0970   32.8352 H   0  0  0  0  0  0  0  0  0  0  0  0
  1  2  1  0
  2  3  1  0
  2  4  1  0
  4  5  1  0
  5  6  2  0
  5  7  1  0
  7  8  1  0
  8  9  1  0
  9 10  1  0
  9 11  1  0
 11 12  1  0
 11 13  1  0
 13 14  1  0
 14 15  1  0
 15 16  1  0
 16 17  1  0
 17 18  2  0
 17 19  2  0
 17 20  1  0
 20 21  2  0
 21 22  1  0
 22 23  2  0
 23 24  1  0
 23 25  1  0
 25 26  2  0
 13 27  1  0
  7 28  1  0
 28  2  1  0
 27  7  1  0
 26 20  1  0
  1 29  1  0
  1 30  1  0
  1 31  1  0
  3 32  1  0
  3 33  1  0
  3 34  1  0
  8 35  1  0
  8 36  1  0
  9 37  1  0
 10 38  1  0
 13 39  1  0
 14 40  1  0
 14 41  1  0
 15 42  1  0
 15 43  1  0
 16 44  1  0
 21 45  1  0
 22 46  1  0
 24 47  1  0
 25 48  1  0
 26 49  1  0
 27 50  1  0
M  END
>  <Energy>  (838) 
-92.296794129161825

>  <compound_id>  (838) 
2909

>  <target_id>  (838) 
1

>  <reference_id>  (838) 
188

>  <inspiration_ids>  (838) 
[188, 165]

>  <energy_score>  (838) 
-118.34805623346281

>  <distance_score>  (838) 
0.962546672078429

>  <path>  (838) 
/opt/xchem-fragalysis-2/maxwin/BulkDock/SCRATCH/505736/C2909-P188/C2909-P188.minimised.mol

>  <scratch_subdir>  (838) 
/opt/xchem-fragalysis-2/maxwin/BulkDock/SCRATCH/505736/C2909-P188

>  <fragmenstein_runtime>  (838) 
3.6271064281463623

>  <fragmenstein_outcome>  (838) 
acceptable

>  <fragmenstein_mode>  (838) 
expansion

>  <fragmenstein_error>  (838) 


$$$$
C2909-P165
     RDKit          3D

 50 52  0  0  0  0  0  0  0  0999 V2000
    3.0689   -4.4331   34.7421 C   0  0  0  0  0  0  0  0  0  0  0  0
    2.1364   -5.4659   35.3830 C   0  0  0  0  0  0  0  0  0  0  0  0
    2.9182   -6.3575   36.3319 C   0  0  0  0  0  0  0  0  0  0  0  0
    1.1306   -4.7892   36.0983 O   0  0  0  0  0  0  0  0  0  0  0  0
    0.0089   -4.8318   35.3264 C   0  0  0  0  0  0  0  0  0  0  0  0
   -1.0076   -4.2367   35.6354 O   0  0  0  0  0  0  0  0  0  0  0  0
    0.2716   -5.7206   34.1040 C   0  0  0  0  0  0  0  0  0  0  0  0
   -0.8348   -6.7479   33.9694 C   0  0  0  0  0  0  0  0  0  0  0  0
   -0.6958   -7.5255   32.6728 C   0  0  0  0  0  0  0  0  0  0  0  0
   -1.8618   -8.3158   32.4757 O   0  0  0  0  0  0  0  0  0  0  0  0
   -0.4301   -6.7083   31.4818 N   0  0  0  0  0  0  0  0  0  0  0  0
   -0.2031   -7.8607   30.0222 Br  0  0  0  0  0  0  0  0  0  0  0  0
    0.7126   -5.8321   31.7397 C   0  0  0  0  0  0  0  0  0  0  0  0
    1.2072   -4.9564   30.5564 C   0  0  0  0  0  0  0  0  0  0  0  0
    0.2636   -3.8472   30.1140 C   0  0  0  0  0  0  0  0  0  0  0  0
    0.3535   -2.7409   31.0899 N   0  0  0  0  0  0  0  0  0  0  0  0
   -1.0528   -1.8434   31.3576 S   0  0  0  0  0  0  0  0  0  0  0  0
   -2.2044   -2.7175   31.3362 O   0  0  0  0  0  0  0  0  0  0  0  0
   -0.7733   -0.9726   32.4788 O   0  0  0  0  0  0  0  0  0  0  0  0
   -1.0594   -0.8313   29.9033 C   0  0  0  0  0  0  0  0  0  0  0  0
   -1.5338   -1.3529   28.7083 C   0  0  0  0  0  0  0  0  0  0  0  0
   -1.6415   -0.5202   27.6003 C   0  0  0  0  0  0  0  0  0  0  0  0
   -1.2948    0.8176   27.6851 C   0  0  0  0  0  0  0  0  0  0  0  0
   -1.5624    1.6230   26.6209 O   0  0  0  0  0  0  0  0  0  0  0  0
   -0.7343    1.3208   28.8470 C   0  0  0  0  0  0  0  0  0  0  0  0
   -0.6157    0.4919   29.9676 C   0  0  0  0  0  0  0  0  0  0  0  0
    0.3540   -4.9806   32.8616 N   0  0  0  0  0  0  0  0  0  0  0  0
    1.5380   -6.3105   34.3987 O   0  0  0  0  0  0  0  0  0  0  0  0
    3.6218   -3.8776   35.5077 H   0  0  0  0  0  0  0  0  0  0  0  0
    3.7815   -4.9139   34.0637 H   0  0  0  0  0  0  0  0  0  0  0  0
    2.5174   -3.6855   34.1653 H   0  0  0  0  0  0  0  0  0  0  0  0
    3.7006   -6.9138   35.8047 H   0  0  0  0  0  0  0  0  0  0  0  0
    2.2544   -7.0972   36.7954 H   0  0  0  0  0  0  0  0  0  0  0  0
    3.3720   -5.7800   37.1442 H   0  0  0  0  0  0  0  0  0  0  0  0
   -1.8132   -6.2658   33.9952 H   0  0  0  0  0  0  0  0  0  0  0  0
   -0.8212   -7.4489   34.8146 H   0  0  0  0  0  0  0  0  0  0  0  0
    0.1353   -8.2143   32.8121 H   0  0  0  0  0  0  0  0  0  0  0  0
   -1.9667   -8.8727   33.2694 H   0  0  0  0  0  0  0  0  0  0  0  0
    1.5886   -6.4438   31.9958 H   0  0  0  0  0  0  0  0  0  0  0  0
    1.4368   -5.5883   29.6920 H   0  0  0  0  0  0  0  0  0  0  0  0
    2.1718   -4.5111   30.8414 H   0  0  0  0  0  0  0  0  0  0  0  0
    0.5846   -3.4676   29.1379 H   0  0  0  0  0  0  0  0  0  0  0  0
   -0.7494   -4.2365   30.0129 H   0  0  0  0  0  0  0  0  0  0  0  0
    1.1532   -2.1215   30.9591 H   0  0  0  0  0  0  0  0  0  0  0  0
   -1.8692   -2.3816   28.6323 H   0  0  0  0  0  0  0  0  0  0  0  0
   -2.0673   -0.9062   26.6820 H   0  0  0  0  0  0  0  0  0  0  0  0
   -1.8323    2.4935   26.9691 H   0  0  0  0  0  0  0  0  0  0  0  0
   -0.4193    2.3596   28.9000 H   0  0  0  0  0  0  0  0  0  0  0  0
   -0.2086    0.8980   30.8905 H   0  0  0  0  0  0  0  0  0  0  0  0
    0.9283   -4.1476   32.9182 H   0  0  0  0  0  0  0  0  0  0  0  0
  1  2  1  0
  2  3  1  0
  2  4  1  0
  4  5  1  0
  5  6  2  0
  5  7  1  0
  7  8  1  0
  8  9  1  0
  9 10  1  0
  9 11  1  0
 11 12  1  0
 11 13  1  0
 13 14  1  0
 14 15  1  0
 15 16  1  0
 16 17  1  0
 17 18  2  0
 17 19  2  0
 17 20  1  0
 20 21  2  0
 21 22  1  0
 22 23  2  0
 23 24  1  0
 23 25  1  0
 25 26  2  0
 13 27  1  0
  7 28  1  0
 28  2  1  0
 27  7  1  0
 26 20  1  0
  1 29  1  0
  1 30  1  0
  1 31  1  0
  3 32  1  0
  3 33  1  0
  3 34  1  0
  8 35  1  0
  8 36  1  0
  9 37  1  0
 10 38  1  0
 13 39  1  0
 14 40  1  0
 14 41  1  0
 15 42  1  0
 15 43  1  0
 16 44  1  0
 21 45  1  0
 22 46  1  0
 24 47  1  0
 25 48  1  0
 26 49  1  0
 27 50  1  0
M  END
>  <Energy>  (839) 
-89.909520648545239

>  <compound_id>  (839) 
2909

>  <target_id>  (839) 
1

>  <reference_id>  (839) 
165

>  <inspiration_ids>  (839) 
[188, 165]

>  <energy_score>  (839) 
-115.96078275284732

>  <distance_score>  (839) 
1.038772145863842

>  <path>  (839) 
/opt/xchem-fragalysis-2/maxwin/BulkDock/SCRATCH/505736/C2909-P165/C2909-P165.minimised.mol

>  <scratch_subdir>  (839) 
/opt/xchem-fragalysis-2/maxwin/BulkDock/SCRATCH/505736/C2909-P165

>  <fragmenstein_runtime>  (839) 
4.813247442245483

>  <fragmenstein_outcome>  (839) 
too moved

>  <fragmenstein_mode>  (839) 
expansion

>  <fragmenstein_error>  (839) 


$$$$
C2878-P188
     RDKit          3D

 36 38  0  0  0  0  0  0  0  0999 V2000
   -2.2257   -3.0181   31.3168 O   0  0  0  0  0  0  0  0  0  0  0  0
   -1.1019   -2.1117   31.4218 S   0  0  0  0  0  0  0  0  0  0  0  0
   -0.9041   -1.2976   32.6025 O   0  0  0  0  0  0  0  0  0  0  0  0
    0.2973   -2.9938   31.2219 N   0  0  0  0  0  0  0  0  0  0  0  0
    0.4902   -3.8565   30.0548 C   0  0  0  0  0  0  0  0  0  0  0  0
    1.2116   -5.1429   30.4514 C   0  0  0  0  0  0  0  0  0  0  0  0
    0.2911   -6.1174   31.1034 C   0  0  0  0  0  0  0  0  0  0  0  0
   -0.4090   -7.0579   30.4910 N   0  0  0  0  0  0  0  0  0  0  0  0
   -1.1217   -7.6666   31.4803 C   0  0  0  0  0  0  0  0  0  0  0  0
   -1.9724   -8.6687   31.2726 O   0  0  0  0  0  0  0  0  0  0  0  0
   -0.8480   -7.1240   32.6952 C   0  0  0  0  0  0  0  0  0  0  0  0
   -1.2595   -7.3503   34.0194 C   0  0  0  0  0  0  0  0  0  0  0  0
   -0.7273   -6.6597   34.9650 N   0  0  0  0  0  0  0  0  0  0  0  0
    0.1894   -5.7037   34.6137 C   0  0  0  0  0  0  0  0  0  0  0  0
    0.6346   -5.4260   33.4238 N   0  0  0  0  0  0  0  0  0  0  0  0
    0.0674   -6.1546   32.4595 N   0  0  0  0  0  0  0  0  0  0  0  0
   -1.0910   -1.0232   30.0191 C   0  0  0  0  0  0  0  0  0  0  0  0
   -1.5510   -1.4833   28.7899 C   0  0  0  0  0  0  0  0  0  0  0  0
   -1.6738   -0.5922   27.7271 C   0  0  0  0  0  0  0  0  0  0  0  0
   -1.3538    0.7444   27.8878 C   0  0  0  0  0  0  0  0  0  0  0  0
   -1.6252    1.6028   26.8658 O   0  0  0  0  0  0  0  0  0  0  0  0
   -0.8248    1.1967   29.0861 C   0  0  0  0  0  0  0  0  0  0  0  0
   -0.7029    0.3135   30.1657 C   0  0  0  0  0  0  0  0  0  0  0  0
    1.0871   -2.7064   31.7956 H   0  0  0  0  0  0  0  0  0  0  0  0
   -0.4607   -4.0984   29.5712 H   0  0  0  0  0  0  0  0  0  0  0  0
    1.1081   -3.3083   29.3349 H   0  0  0  0  0  0  0  0  0  0  0  0
    2.0712   -4.9285   31.0973 H   0  0  0  0  0  0  0  0  0  0  0  0
    1.6131   -5.6131   29.5455 H   0  0  0  0  0  0  0  0  0  0  0  0
   -2.5129   -8.8799   32.0583 H   0  0  0  0  0  0  0  0  0  0  0  0
   -2.0266   -8.0996   34.2550 H   0  0  0  0  0  0  0  0  0  0  0  0
    0.5987   -5.1157   35.4534 H   0  0  0  0  0  0  0  0  0  0  0  0
   -1.8748   -2.5099   28.6516 H   0  0  0  0  0  0  0  0  0  0  0  0
   -2.1001   -0.9298   26.7901 H   0  0  0  0  0  0  0  0  0  0  0  0
   -2.0248    2.4017   27.2615 H   0  0  0  0  0  0  0  0  0  0  0  0
   -0.5289    2.2363   29.1901 H   0  0  0  0  0  0  0  0  0  0  0  0
   -0.3274    0.6814   31.1171 H   0  0  0  0  0  0  0  0  0  0  0  0
  1  2  2  0
  2  3  2  0
  2  4  1  0
  4  5  1  0
  5  6  1  0
  6  7  1  0
  7  8  2  0
  8  9  1  0
  9 10  1  0
  9 11  2  0
 11 12  1  0
 12 13  2  0
 13 14  1  0
 14 15  2  0
 15 16  1  0
  2 17  1  0
 17 18  2  0
 18 19  1  0
 19 20  2  0
 20 21  1  0
 20 22  1  0
 22 23  2  0
 16  7  1  0
 23 17  1  0
 16 11  1  0
  4 24  1  0
  5 25  1  0
  5 26  1  0
  6 27  1  0
  6 28  1  0
 10 29  1  0
 12 30  1  0
 14 31  1  0
 18 32  1  0
 19 33  1  0
 21 34  1  0
 22 35  1  0
 23 36  1  0
M  END
>  <Energy>  (840) 
-116.1303551212809

>  <compound_id>  (840) 
2878

>  <target_id>  (840) 
1

>  <reference_id>  (840) 
188

>  <inspiration_ids>  (840) 
[188, 166]

>  <energy_score>  (840) 
-38.532080872106945

>  <distance_score>  (840) 
1.326976993114313

>  <path>  (840) 
/opt/xchem-fragalysis-2/maxwin/BulkDock/SCRATCH/505736/C2878-P188/C2878-P188.minimised.mol

>  <scratch_subdir>  (840) 
/opt/xchem-fragalysis-2/maxwin/BulkDock/SCRATCH/505736/C2878-P188

>  <fragmenstein_runtime>  (840) 
3.0996768474578857

>  <fragmenstein_outcome>  (840) 
too moved

>  <fragmenstein_mode>  (840) 
expansion

>  <fragmenstein_error>  (840) 


$$$$
C2878-P166
     RDKit          3D

 36 38  0  0  0  0  0  0  0  0999 V2000
   -2.3045   -2.9705   31.2950 O   0  0  0  0  0  0  0  0  0  0  0  0
   -1.1621   -2.0834   31.3662 S   0  0  0  0  0  0  0  0  0  0  0  0
   -0.9349   -1.2460   32.5250 O   0  0  0  0  0  0  0  0  0  0  0  0
    0.2166   -3.0003   31.1790 N   0  0  0  0  0  0  0  0  0  0  0  0
    0.3828   -3.9097   30.0445 C   0  0  0  0  0  0  0  0  0  0  0  0
    1.0882   -5.1933   30.4793 C   0  0  0  0  0  0  0  0  0  0  0  0
    0.1670   -6.1672   31.1384 C   0  0  0  0  0  0  0  0  0  0  0  0
   -0.4737   -7.1629   30.5444 N   0  0  0  0  0  0  0  0  0  0  0  0
   -1.1519   -7.7965   31.5444 C   0  0  0  0  0  0  0  0  0  0  0  0
   -1.9288   -8.8653   31.3717 O   0  0  0  0  0  0  0  0  0  0  0  0
   -0.9257   -7.2063   32.7451 C   0  0  0  0  0  0  0  0  0  0  0  0
   -1.3295   -7.4418   34.0699 C   0  0  0  0  0  0  0  0  0  0  0  0
   -0.8892   -6.6665   34.9964 N   0  0  0  0  0  0  0  0  0  0  0  0
   -0.0689   -5.6310   34.6270 C   0  0  0  0  0  0  0  0  0  0  0  0
    0.3801   -5.3577   33.4373 N   0  0  0  0  0  0  0  0  0  0  0  0
   -0.0915   -6.1698   32.4900 N   0  0  0  0  0  0  0  0  0  0  0  0
   -1.1554   -1.0285   29.9362 C   0  0  0  0  0  0  0  0  0  0  0  0
   -1.6387   -1.5169   28.7258 C   0  0  0  0  0  0  0  0  0  0  0  0
   -1.7709   -0.6654   27.6308 C   0  0  0  0  0  0  0  0  0  0  0  0
   -1.4245    0.6706   27.7473 C   0  0  0  0  0  0  0  0  0  0  0  0
   -1.6709    1.4938   26.6899 O   0  0  0  0  0  0  0  0  0  0  0  0
   -0.8829    1.1558   28.9308 C   0  0  0  0  0  0  0  0  0  0  0  0
   -0.7583    0.3077   30.0390 C   0  0  0  0  0  0  0  0  0  0  0  0
    1.0166   -2.7113   31.7378 H   0  0  0  0  0  0  0  0  0  0  0  0
   -0.5741   -4.1497   29.5744 H   0  0  0  0  0  0  0  0  0  0  0  0
    1.0045   -3.3977   29.3014 H   0  0  0  0  0  0  0  0  0  0  0  0
    1.9405   -4.9704   31.1324 H   0  0  0  0  0  0  0  0  0  0  0  0
    1.5025   -5.6806   29.5881 H   0  0  0  0  0  0  0  0  0  0  0  0
   -2.4615   -9.0759   32.1614 H   0  0  0  0  0  0  0  0  0  0  0  0
   -2.0044   -8.2743   34.3196 H   0  0  0  0  0  0  0  0  0  0  0  0
    0.2550   -4.9718   35.4511 H   0  0  0  0  0  0  0  0  0  0  0  0
   -1.9652   -2.5452   28.6337 H   0  0  0  0  0  0  0  0  0  0  0  0
   -2.1955   -1.0375   26.7023 H   0  0  0  0  0  0  0  0  0  0  0  0
   -1.8721    2.3812   27.0396 H   0  0  0  0  0  0  0  0  0  0  0  0
   -0.5705    2.1937   29.0015 H   0  0  0  0  0  0  0  0  0  0  0  0
   -0.3696    0.7019   30.9745 H   0  0  0  0  0  0  0  0  0  0  0  0
  1  2  2  0
  2  3  2  0
  2  4  1  0
  4  5  1  0
  5  6  1  0
  6  7  1  0
  7  8  2  0
  8  9  1  0
  9 10  1  0
  9 11  2  0
 11 12  1  0
 12 13  2  0
 13 14  1  0
 14 15  2  0
 15 16  1  0
  2 17  1  0
 17 18  2  0
 18 19  1  0
 19 20  2  0
 20 21  1  0
 20 22  1  0
 22 23  2  0
 16  7  1  0
 23 17  1  0
 16 11  1  0
  4 24  1  0
  5 25  1  0
  5 26  1  0
  6 27  1  0
  6 28  1  0
 10 29  1  0
 12 30  1  0
 14 31  1  0
 18 32  1  0
 19 33  1  0
 21 34  1  0
 22 35  1  0
 23 36  1  0
M  END
>  <Energy>  (841) 
-116.65066554596514

>  <compound_id>  (841) 
2878

>  <target_id>  (841) 
1

>  <reference_id>  (841) 
166

>  <inspiration_ids>  (841) 
[188, 166]

>  <energy_score>  (841) 
-39.05239129679151

>  <distance_score>  (841) 
1.3078863569518613

>  <path>  (841) 
/opt/xchem-fragalysis-2/maxwin/BulkDock/SCRATCH/505736/C2878-P166/C2878-P166.minimised.mol

>  <scratch_subdir>  (841) 
/opt/xchem-fragalysis-2/maxwin/BulkDock/SCRATCH/505736/C2878-P166

>  <fragmenstein_runtime>  (841) 
2.5391530990600586

>  <fragmenstein_outcome>  (841) 
too moved

>  <fragmenstein_mode>  (841) 
expansion

>  <fragmenstein_error>  (841) 


$$$$
C2879-P188
     RDKit          3D

 66 69  0  0  0  0  0  0  0  0999 V2000
   -0.8298   -3.1088   31.7455 O   0  0  0  0  0  0  0  0  0  0  0  0
    0.1854   -2.1074   31.9973 S   0  0  0  0  0  0  0  0  0  0  0  0
    0.6910   -1.7164   33.3948 N   0  0  0  0  0  0  0  0  0  0  0  0
    0.4838   -2.6161   34.5856 C   0  0  0  0  0  0  0  0  0  0  0  0
    1.5594   -3.7192   34.7321 C   0  0  0  0  0  0  0  0  0  0  0  0
    1.5135   -4.6475   35.9972 C   0  0  0  0  0  0  0  0  0  0  0  0
    2.2816   -3.9398   36.9902 O   0  0  0  0  0  0  0  0  0  0  0  0
    2.1967   -6.0182   35.7555 C   0  0  0  0  0  0  0  0  0  0  0  0
    1.3497   -7.0403   34.9642 C   0  0  0  0  0  0  0  0  0  0  0  0
   -0.0244   -7.1818   35.4204 N   0  0  0  0  0  0  0  0  0  0  0  0
   -0.9894   -7.9478   34.5836 C   0  0  0  0  0  0  0  0  0  0  0  0
   -0.5562   -9.2057   33.7703 C   0  0  0  0  0  0  0  0  0  0  0  0
   -1.1125   -9.5664   32.0768 C   0  0  0  0  0  0  0  0  0  0  0  0
   -1.1222  -11.1511   31.4658 C   0  0  0  0  0  0  0  0  0  0  0  0
   -0.2509  -12.9297   33.1553 S   0  0  0  0  0  0  0  0  0  0  0  0
    0.0436  -10.8922   34.6797 C   0  0  0  0  0  0  0  0  0  0  0  0
   -0.6816   -5.9216   35.8149 C   0  0  0  0  0  0  0  0  0  0  0  0
    0.1561   -4.9492   36.6283 C   0  0  0  0  0  0  0  0  0  0  0  0
    1.6077   -2.7027   31.2862 N   0  0  0  0  0  0  0  0  0  0  0  0
    1.6478   -3.1352   29.8820 C   0  0  0  0  0  0  0  0  0  0  0  0
    2.3142   -4.5148   29.7014 C   0  0  0  0  0  0  0  0  0  0  0  0
    1.4528   -5.5381   30.3828 C   0  0  0  0  0  0  0  0  0  0  0  0
    1.2911   -5.3500   31.6968 N   0  0  0  0  0  0  0  0  0  0  0  0
    0.1058   -5.7260   32.1904 C   0  0  0  0  0  0  0  0  0  0  0  0
   -0.8095   -6.4394   31.5083 C   0  0  0  0  0  0  0  0  0  0  0  0
   -0.4113   -6.7856   30.2657 C   0  0  0  0  0  0  0  0  0  0  0  0
   -1.2853   -7.5225   29.5295 O   0  0  0  0  0  0  0  0  0  0  0  0
    0.6760   -6.3314   29.6414 N   0  0  0  0  0  0  0  0  0  0  0  0
   -0.2134   -0.7085   30.9693 C   0  0  0  0  0  0  0  0  0  0  0  0
   -1.0882   -0.9115   29.8869 C   0  0  0  0  0  0  0  0  0  0  0  0
   -1.2395    0.0748   28.9144 C   0  0  0  0  0  0  0  0  0  0  0  0
   -0.5430    1.2667   29.0469 C   0  0  0  0  0  0  0  0  0  0  0  0
   -0.6954    2.2641   28.1314 O   0  0  0  0  0  0  0  0  0  0  0  0
    0.3257    1.4761   30.1187 C   0  0  0  0  0  0  0  0  0  0  0  0
    0.4936    0.4859   31.0922 C   0  0  0  0  0  0  0  0  0  0  0  0
    0.5194   -1.9789   35.4770 H   0  0  0  0  0  0  0  0  0  0  0  0
   -0.5201   -3.0512   34.5428 H   0  0  0  0  0  0  0  0  0  0  0  0
    2.5410   -3.2236   34.7088 H   0  0  0  0  0  0  0  0  0  0  0  0
    1.5532   -4.3416   33.8489 H   0  0  0  0  0  0  0  0  0  0  0  0
    2.3552   -4.5013   37.7824 H   0  0  0  0  0  0  0  0  0  0  0  0
    2.4507   -6.4656   36.7272 H   0  0  0  0  0  0  0  0  0  0  0  0
    3.1606   -5.8704   35.2516 H   0  0  0  0  0  0  0  0  0  0  0  0
    1.4159   -6.7997   33.9090 H   0  0  0  0  0  0  0  0  0  0  0  0
    1.8519   -8.0079   35.0712 H   0  0  0  0  0  0  0  0  0  0  0  0
   -1.4758   -7.2839   33.8727 H   0  0  0  0  0  0  0  0  0  0  0  0
   -1.8019   -8.2518   35.2574 H   0  0  0  0  0  0  0  0  0  0  0  0
   -1.6000   -8.8031   31.5116 H   0  0  0  0  0  0  0  0  0  0  0  0
   -1.1052  -11.3681   30.4165 H   0  0  0  0  0  0  0  0  0  0  0  0
   -0.4362  -11.1401   35.7058 H   0  0  0  0  0  0  0  0  0  0  0  0
   -1.5581   -6.1669   36.4196 H   0  0  0  0  0  0  0  0  0  0  0  0
   -1.0692   -5.3842   34.9463 H   0  0  0  0  0  0  0  0  0  0  0  0
   -0.4034   -4.0228   36.8055 H   0  0  0  0  0  0  0  0  0  0  0  0
    0.3063   -5.3757   37.6308 H   0  0  0  0  0  0  0  0  0  0  0  0
    1.8360   -3.4934   31.8809 H   0  0  0  0  0  0  0  0  0  0  0  0
    2.2133   -2.3896   29.3127 H   0  0  0  0  0  0  0  0  0  0  0  0
    0.6412   -3.1748   29.4501 H   0  0  0  0  0  0  0  0  0  0  0  0
    3.3196   -4.5236   30.1368 H   0  0  0  0  0  0  0  0  0  0  0  0
    2.4087   -4.7485   28.6354 H   0  0  0  0  0  0  0  0  0  0  0  0
   -0.1325   -5.3641   33.1739 H   0  0  0  0  0  0  0  0  0  0  0  0
   -1.7718   -6.6960   31.9089 H   0  0  0  0  0  0  0  0  0  0  0  0
   -1.3345   -7.0280   28.6881 H   0  0  0  0  0  0  0  0  0  0  0  0
   -1.6003   -1.8616   29.7498 H   0  0  0  0  0  0  0  0  0  0  0  0
   -1.8622   -0.1141   28.0442 H   0  0  0  0  0  0  0  0  0  0  0  0
   -1.5960    2.2060   27.7605 H   0  0  0  0  0  0  0  0  0  0  0  0
    0.8755    2.4114   30.1891 H   0  0  0  0  0  0  0  0  0  0  0  0
    1.2034    0.6279   31.9037 H   0  0  0  0  0  0  0  0  0  0  0  0
  1  2  2  0
  2  3  2  0
  3  4  1  0
  4  5  1  0
  5  6  1  0
  6  7  1  0
  6  8  1  0
  8  9  1  0
  9 10  1  0
 10 11  1  0
 11 12  1  0
 12 13  1  0
 13 14  2  0
 14 15  1  0
 15 16  1  0
 10 17  1  0
 17 18  1  0
  2 19  1  0
 19 20  1  0
 20 21  1  0
 21 22  1  0
 22 23  2  0
 23 24  1  0
 24 25  2  0
 25 26  1  0
 26 27  1  0
 26 28  2  0
  2 29  1  0
 29 30  2  0
 30 31  1  0
 31 32  2  0
 32 33  1  0
 32 34  1  0
 34 35  2  0
 18  6  1  0
 28 22  1  0
 35 29  1  0
 16 12  2  0
  4 36  1  0
  4 37  1  0
  5 38  1  0
  5 39  1  0
  7 40  1  0
  8 41  1  0
  8 42  1  0
  9 43  1  0
  9 44  1  0
 11 45  1  0
 11 46  1  0
 13 47  1  0
 14 48  1  0
 16 49  1  0
 17 50  1  0
 17 51  1  0
 18 52  1  0
 18 53  1  0
 19 54  1  0
 20 55  1  0
 20 56  1  0
 21 57  1  0
 21 58  1  0
 24 59  1  0
 25 60  1  0
 27 61  1  0
 30 62  1  0
 31 63  1  0
 33 64  1  0
 34 65  1  0
 35 66  1  0
M  END
>  <Energy>  (842) 
518.09253003450976

>  <compound_id>  (842) 
2879

>  <target_id>  (842) 
1

>  <reference_id>  (842) 
188

>  <inspiration_ids>  (842) 
[188, 167]

>  <energy_score>  (842) 
508.16266657412643

>  <distance_score>  (842) 
2.313633359104105

>  <path>  (842) 
/opt/xchem-fragalysis-2/maxwin/BulkDock/SCRATCH/505736/C2879-P188/C2879-P188.minimised.mol

>  <scratch_subdir>  (842) 
/opt/xchem-fragalysis-2/maxwin/BulkDock/SCRATCH/505736/C2879-P188

>  <fragmenstein_runtime>  (842) 
9.823111295700073

>  <fragmenstein_outcome>  (842) 
too moved

>  <fragmenstein_mode>  (842) 
expansion

>  <fragmenstein_error>  (842) 


$$$$
C2879-P167
     RDKit          3D

 66 69  0  0  0  0  0  0  0  0999 V2000
   -1.1027   -3.5255   30.7297 O   0  0  0  0  0  0  0  0  0  0  0  0
   -0.4443   -2.3279   31.2051 S   0  0  0  0  0  0  0  0  0  0  0  0
   -0.1102   -2.0122   32.6682 N   0  0  0  0  0  0  0  0  0  0  0  0
   -0.4714   -2.9921   33.7737 C   0  0  0  0  0  0  0  0  0  0  0  0
    0.1496   -4.4027   33.5977 C   0  0  0  0  0  0  0  0  0  0  0  0
    0.1948   -5.4263   34.7907 C   0  0  0  0  0  0  0  0  0  0  0  0
    0.4174   -4.6729   35.9904 O   0  0  0  0  0  0  0  0  0  0  0  0
    1.3503   -6.3980   34.6398 C   0  0  0  0  0  0  0  0  0  0  0  0
    1.0407   -7.6087   33.7297 C   0  0  0  0  0  0  0  0  0  0  0  0
   -0.2610   -8.1052   33.2253 N   0  0  0  0  0  0  0  0  0  0  0  0
   -0.4079   -8.4009   31.7208 C   0  0  0  0  0  0  0  0  0  0  0  0
   -0.8067   -9.7561   31.0188 C   0  0  0  0  0  0  0  0  0  0  0  0
   -0.9485  -10.1993   29.8758 C   0  0  0  0  0  0  0  0  0  0  0  0
   -1.2351  -11.0420   31.2052 C   0  0  0  0  0  0  0  0  0  0  0  0
   -0.6887  -13.3083   32.1273 S   0  0  0  0  0  0  0  0  0  0  0  0
   -0.9042  -11.5062   30.5387 C   0  0  0  0  0  0  0  0  0  0  0  0
   -1.3253   -7.2632   33.7743 C   0  0  0  0  0  0  0  0  0  0  0  0
   -0.9472   -6.4202   35.0139 C   0  0  0  0  0  0  0  0  0  0  0  0
    1.1317   -2.4154   30.5963 N   0  0  0  0  0  0  0  0  0  0  0  0
    1.4514   -2.0923   29.1952 C   0  0  0  0  0  0  0  0  0  0  0  0
    2.8304   -2.5760   28.7077 C   0  0  0  0  0  0  0  0  0  0  0  0
    3.0271   -3.9865   29.1846 C   0  0  0  0  0  0  0  0  0  0  0  0
    3.7493   -4.0511   30.3248 N   0  0  0  0  0  0  0  0  0  0  0  0
    3.2008   -4.7653   31.3049 C   0  0  0  0  0  0  0  0  0  0  0  0
    2.0532   -5.4803   31.1163 C   0  0  0  0  0  0  0  0  0  0  0  0
    1.5461   -5.5149   29.8567 C   0  0  0  0  0  0  0  0  0  0  0  0
    0.3620   -6.1427   29.6457 O   0  0  0  0  0  0  0  0  0  0  0  0
    2.0341   -4.8328   28.8319 N   0  0  0  0  0  0  0  0  0  0  0  0
   -1.0781   -0.9323   30.2909 C   0  0  0  0  0  0  0  0  0  0  0  0
   -1.6005   -1.1974   29.0141 C   0  0  0  0  0  0  0  0  0  0  0  0
   -1.7043   -0.1747   28.0747 C   0  0  0  0  0  0  0  0  0  0  0  0
   -1.3414    1.1147   28.4279 C   0  0  0  0  0  0  0  0  0  0  0  0
   -1.4946    2.0971   27.4970 O   0  0  0  0  0  0  0  0  0  0  0  0
   -0.8253    1.3893   29.6927 C   0  0  0  0  0  0  0  0  0  0  0  0
   -0.6955    0.3643   30.6394 C   0  0  0  0  0  0  0  0  0  0  0  0
   -0.1013   -2.5481   34.7046 H   0  0  0  0  0  0  0  0  0  0  0  0
   -1.5536   -3.0090   33.8461 H   0  0  0  0  0  0  0  0  0  0  0  0
    1.1958   -4.1867   33.3514 H   0  0  0  0  0  0  0  0  0  0  0  0
   -0.2872   -4.8861   32.7219 H   0  0  0  0  0  0  0  0  0  0  0  0
    0.3427   -5.2867   36.7448 H   0  0  0  0  0  0  0  0  0  0  0  0
    1.6325   -6.7807   35.6334 H   0  0  0  0  0  0  0  0  0  0  0  0
    2.2598   -5.8855   34.3006 H   0  0  0  0  0  0  0  0  0  0  0  0
    1.7084   -7.4562   32.9014 H   0  0  0  0  0  0  0  0  0  0  0  0
    1.4163   -8.4253   34.3536 H   0  0  0  0  0  0  0  0  0  0  0  0
    0.4824   -8.0415   31.2061 H   0  0  0  0  0  0  0  0  0  0  0  0
   -1.1843   -7.7162   31.3489 H   0  0  0  0  0  0  0  0  0  0  0  0
   -0.5132   -9.9623   28.9110 H   0  0  0  0  0  0  0  0  0  0  0  0
   -1.9571  -10.4638   32.0800 H   0  0  0  0  0  0  0  0  0  0  0  0
   -1.7766  -11.9807   29.7032 H   0  0  0  0  0  0  0  0  0  0  0  0
   -2.1633   -7.9168   34.0321 H   0  0  0  0  0  0  0  0  0  0  0  0
   -1.6455   -6.5661   33.0041 H   0  0  0  0  0  0  0  0  0  0  0  0
   -1.7659   -5.8715   35.4406 H   0  0  0  0  0  0  0  0  0  0  0  0
   -0.6841   -7.1151   35.8271 H   0  0  0  0  0  0  0  0  0  0  0  0
    1.6867   -1.8551   31.2334 H   0  0  0  0  0  0  0  0  0  0  0  0
    1.3970   -1.0116   29.0283 H   0  0  0  0  0  0  0  0  0  0  0  0
    0.6999   -2.5614   28.5497 H   0  0  0  0  0  0  0  0  0  0  0  0
    3.6207   -1.9269   29.1029 H   0  0  0  0  0  0  0  0  0  0  0  0
    2.8898   -2.5425   27.6169 H   0  0  0  0  0  0  0  0  0  0  0  0
    3.6873   -4.7004   32.2722 H   0  0  0  0  0  0  0  0  0  0  0  0
    1.5204   -5.9386   31.9097 H   0  0  0  0  0  0  0  0  0  0  0  0
    0.0278   -5.6289   28.8823 H   0  0  0  0  0  0  0  0  0  0  0  0
   -1.8413   -2.2124   28.7001 H   0  0  0  0  0  0  0  0  0  0  0  0
   -2.0625   -0.3924   27.0711 H   0  0  0  0  0  0  0  0  0  0  0  0
   -1.7413    2.9176   27.9648 H   0  0  0  0  0  0  0  0  0  0  0  0
   -0.4803    2.3921   29.9318 H   0  0  0  0  0  0  0  0  0  0  0  0
   -0.2204    0.5624   31.5970 H   0  0  0  0  0  0  0  0  0  0  0  0
  1  2  2  0
  2  3  2  0
  3  4  1  0
  4  5  1  0
  5  6  1  0
  6  7  1  0
  6  8  1  0
  8  9  1  0
  9 10  1  0
 10 11  1  0
 11 12  1  0
 12 13  1  0
 13 14  2  0
 14 15  1  0
 15 16  1  0
 10 17  1  0
 17 18  1  0
  2 19  1  0
 19 20  1  0
 20 21  1  0
 21 22  1  0
 22 23  2  0
 23 24  1  0
 24 25  2  0
 25 26  1  0
 26 27  1  0
 26 28  2  0
  2 29  1  0
 29 30  2  0
 30 31  1  0
 31 32  2  0
 32 33  1  0
 32 34  1  0
 34 35  2  0
 18  6  1  0
 28 22  1  0
 35 29  1  0
 16 12  2  0
  4 36  1  0
  4 37  1  0
  5 38  1  0
  5 39  1  0
  7 40  1  0
  8 41  1  0
  8 42  1  0
  9 43  1  0
  9 44  1  0
 11 45  1  0
 11 46  1  0
 13 47  1  0
 14 48  1  0
 16 49  1  0
 17 50  1  0
 17 51  1  0
 18 52  1  0
 18 53  1  0
 19 54  1  0
 20 55  1  0
 20 56  1  0
 21 57  1  0
 21 58  1  0
 24 59  1  0
 25 60  1  0
 27 61  1  0
 30 62  1  0
 31 63  1  0
 33 64  1  0
 34 65  1  0
 35 66  1  0
M  END
>  <Energy>  (843) 
779.67711841618359

>  <compound_id>  (843) 
2879

>  <target_id>  (843) 
1

>  <reference_id>  (843) 
167

>  <inspiration_ids>  (843) 
[188, 167]

>  <energy_score>  (843) 
769.7472549558088

>  <distance_score>  (843) 
3.2057945499508587

>  <path>  (843) 
/opt/xchem-fragalysis-2/maxwin/BulkDock/SCRATCH/505736/C2879-P167/C2879-P167.minimised.mol

>  <scratch_subdir>  (843) 
/opt/xchem-fragalysis-2/maxwin/BulkDock/SCRATCH/505736/C2879-P167

>  <fragmenstein_runtime>  (843) 
9.562077760696411

>  <fragmenstein_outcome>  (843) 
too moved

>  <fragmenstein_mode>  (843) 
expansion

>  <fragmenstein_error>  (843) 


$$$$
C2910-P188
     RDKit          3D

 57 60  0  0  0  0  0  0  0  0999 V2000
    5.9452   -9.9714   37.7639 C   0  0  0  0  0  0  0  0  0  0  0  0
    5.5486   -8.6558   37.3512 N   0  0  0  0  0  0  0  0  0  0  0  0
    4.8751   -8.2021   36.1619 C   0  0  0  0  0  0  0  0  0  0  0  0
    4.5434   -8.7969   35.1762 O   0  0  0  0  0  0  0  0  0  0  0  0
    4.6208   -6.6836   36.2977 C   0  0  0  0  0  0  0  0  0  0  0  0
    3.7085   -6.1291   35.2290 C   0  0  0  0  0  0  0  0  0  0  0  0
    2.3870   -6.5715   35.1562 C   0  0  0  0  0  0  0  0  0  0  0  0
    1.5761   -6.1697   34.1005 C   0  0  0  0  0  0  0  0  0  0  0  0
    2.0519   -5.3027   33.0965 C   0  0  0  0  0  0  0  0  0  0  0  0
    1.1994   -4.8985   31.9241 C   0  0  0  0  0  0  0  0  0  0  0  0
    0.5470   -3.7475   32.2101 C   0  0  0  0  0  0  0  0  0  0  0  0
    0.4386   -2.7049   31.1413 C   0  0  0  0  0  0  0  0  0  0  0  0
    0.3231   -1.4203   31.7877 N   0  0  0  0  0  0  0  0  0  0  0  0
   -1.0430   -0.5133   31.5558 S   0  0  0  0  0  0  0  0  0  0  0  0
   -2.1857   -1.3985   31.5407 O   0  0  0  0  0  0  0  0  0  0  0  0
   -0.9681    0.5802   32.5008 O   0  0  0  0  0  0  0  0  0  0  0  0
   -0.7962    0.1453   29.9309 C   0  0  0  0  0  0  0  0  0  0  0  0
   -1.3788   -0.4788   28.8281 C   0  0  0  0  0  0  0  0  0  0  0  0
   -1.4254    0.2004   27.6111 C   0  0  0  0  0  0  0  0  0  0  0  0
   -0.9104    1.4868   27.5172 C   0  0  0  0  0  0  0  0  0  0  0  0
   -1.1126    2.1896   26.3679 O   0  0  0  0  0  0  0  0  0  0  0  0
   -0.2400    2.0705   28.5837 C   0  0  0  0  0  0  0  0  0  0  0  0
   -0.1649    1.3866   29.7961 C   0  0  0  0  0  0  0  0  0  0  0  0
   -0.7810   -4.0336   32.8815 C   0  0  0  0  0  0  0  0  0  0  0  0
   -1.4414   -5.1500   32.8069 N   0  0  0  0  0  0  0  0  0  0  0  0
   -0.9051   -6.1027   31.9969 C   0  0  0  0  0  0  0  0  0  0  0  0
   -1.2565   -7.3828   31.6393 C   0  0  0  0  0  0  0  0  0  0  0  0
   -2.2629   -8.0438   32.2120 O   0  0  0  0  0  0  0  0  0  0  0  0
   -0.4191   -7.7734   30.5866 C   0  0  0  0  0  0  0  0  0  0  0  0
   -0.4755   -8.9127   29.8767 N   0  0  0  0  0  0  0  0  0  0  0  0
    0.5113   -6.7835   30.4091 C   0  0  0  0  0  0  0  0  0  0  0  0
    0.3488   -5.9108   31.4484 N   0  0  0  0  0  0  0  0  0  0  0  0
    3.3489   -4.7958   33.2208 C   0  0  0  0  0  0  0  0  0  0  0  0
    4.1739   -5.2122   34.2745 C   0  0  0  0  0  0  0  0  0  0  0  0
    5.4574  -10.1983   38.7144 H   0  0  0  0  0  0  0  0  0  0  0  0
    7.0294   -9.9820   37.8951 H   0  0  0  0  0  0  0  0  0  0  0  0
    5.6503  -10.7015   37.0067 H   0  0  0  0  0  0  0  0  0  0  0  0
    5.7420   -7.8579   37.9465 H   0  0  0  0  0  0  0  0  0  0  0  0
    5.5934   -6.1778   36.2657 H   0  0  0  0  0  0  0  0  0  0  0  0
    4.1691   -6.4765   37.2760 H   0  0  0  0  0  0  0  0  0  0  0  0
    1.9851   -7.2633   35.8952 H   0  0  0  0  0  0  0  0  0  0  0  0
    0.5602   -6.5607   34.0899 H   0  0  0  0  0  0  0  0  0  0  0  0
    1.3406   -2.6922   30.5180 H   0  0  0  0  0  0  0  0  0  0  0  0
   -0.4041   -2.9202   30.4756 H   0  0  0  0  0  0  0  0  0  0  0  0
    1.0097   -1.0895   32.4604 H   0  0  0  0  0  0  0  0  0  0  0  0
   -1.8622   -1.4496   28.9065 H   0  0  0  0  0  0  0  0  0  0  0  0
   -1.9312   -0.2481   26.7596 H   0  0  0  0  0  0  0  0  0  0  0  0
   -1.4055    3.0827   26.6334 H   0  0  0  0  0  0  0  0  0  0  0  0
    0.1807    3.0680   28.4945 H   0  0  0  0  0  0  0  0  0  0  0  0
    0.3063    1.8694   30.6490 H   0  0  0  0  0  0  0  0  0  0  0  0
   -1.1878   -3.2088   33.4906 H   0  0  0  0  0  0  0  0  0  0  0  0
   -2.3996   -8.9347   31.8555 H   0  0  0  0  0  0  0  0  0  0  0  0
   -0.6695   -9.7589   30.4147 H   0  0  0  0  0  0  0  0  0  0  0  0
    0.3764   -9.1605   29.3626 H   0  0  0  0  0  0  0  0  0  0  0  0
    1.3106   -6.6501   29.6991 H   0  0  0  0  0  0  0  0  0  0  0  0
    3.7458   -4.1051   32.4808 H   0  0  0  0  0  0  0  0  0  0  0  0
    5.1954   -4.8405   34.3214 H   0  0  0  0  0  0  0  0  0  0  0  0
  1  2  1  0
  2  3  1  0
  3  4  2  0
  3  5  1  0
  5  6  1  0
  6  7  2  0
  7  8  1  0
  8  9  2  0
  9 10  1  0
 10 11  2  0
 11 12  1  0
 12 13  1  0
 13 14  1  0
 14 15  2  0
 14 16  2  0
 14 17  1  0
 17 18  2  0
 18 19  1  0
 19 20  2  0
 20 21  1  0
 20 22  1  0
 22 23  2  0
 11 24  1  0
 24 25  2  0
 25 26  1  0
 26 27  2  0
 27 28  1  0
 27 29  1  0
 29 30  1  0
 29 31  2  0
 31 32  1  0
  9 33  1  0
 33 34  2  0
 34  6  1  0
 32 10  1  0
 23 17  1  0
 32 26  1  0
  1 35  1  0
  1 36  1  0
  1 37  1  0
  2 38  1  0
  5 39  1  0
  5 40  1  0
  7 41  1  0
  8 42  1  0
 12 43  1  0
 12 44  1  0
 13 45  1  0
 18 46  1  0
 19 47  1  0
 21 48  1  0
 22 49  1  0
 23 50  1  0
 24 51  1  0
 28 52  1  0
 30 53  1  0
 30 54  1  0
 31 55  1  0
 33 56  1  0
 34 57  1  0
M  END
>  <Energy>  (844) 
57.717180781949196

>  <compound_id>  (844) 
2910

>  <target_id>  (844) 
1

>  <reference_id>  (844) 
188

>  <inspiration_ids>  (844) 
[188, 168]

>  <energy_score>  (844) 
11.004241732732282

>  <distance_score>  (844) 
3.806856191410643

>  <path>  (844) 
/opt/xchem-fragalysis-2/maxwin/BulkDock/SCRATCH/505736/C2910-P188/C2910-P188.minimised.mol

>  <scratch_subdir>  (844) 
/opt/xchem-fragalysis-2/maxwin/BulkDock/SCRATCH/505736/C2910-P188

>  <fragmenstein_runtime>  (844) 
15.947303295135498

>  <fragmenstein_outcome>  (844) 
too moved

>  <fragmenstein_mode>  (844) 
expansion

>  <fragmenstein_error>  (844) 


$$$$
C2910-P168
     RDKit          3D

 57 60  0  0  0  0  0  0  0  0999 V2000
    2.6686   -6.0413   39.3815 C   0  0  0  0  0  0  0  0  0  0  0  0
    3.4998   -5.8519   38.2271 N   0  0  0  0  0  0  0  0  0  0  0  0
    4.3715   -6.7590   37.5358 C   0  0  0  0  0  0  0  0  0  0  0  0
    4.6899   -7.8852   37.7908 O   0  0  0  0  0  0  0  0  0  0  0  0
    4.9667   -6.0795   36.2995 C   0  0  0  0  0  0  0  0  0  0  0  0
    3.9869   -5.7927   35.1803 C   0  0  0  0  0  0  0  0  0  0  0  0
    2.8217   -6.5438   34.9945 C   0  0  0  0  0  0  0  0  0  0  0  0
    1.9707   -6.2727   33.9209 C   0  0  0  0  0  0  0  0  0  0  0  0
    2.2690   -5.2574   32.9936 C   0  0  0  0  0  0  0  0  0  0  0  0
    1.3392   -4.8809   31.8805 C   0  0  0  0  0  0  0  0  0  0  0  0
    0.5220   -3.8939   32.3133 C   0  0  0  0  0  0  0  0  0  0  0  0
    0.1635   -2.7884   31.3734 C   0  0  0  0  0  0  0  0  0  0  0  0
    0.2765   -1.5696   32.1374 N   0  0  0  0  0  0  0  0  0  0  0  0
   -0.8119   -0.3536   31.8552 S   0  0  0  0  0  0  0  0  0  0  0  0
   -2.1358   -0.9330   31.7949 O   0  0  0  0  0  0  0  0  0  0  0  0
   -0.5024    0.6908   32.8060 O   0  0  0  0  0  0  0  0  0  0  0  0
   -0.3672    0.2249   30.2369 C   0  0  0  0  0  0  0  0  0  0  0  0
   -0.9190   -0.3831   29.1100 C   0  0  0  0  0  0  0  0  0  0  0  0
   -0.8615    0.2688   27.8809 C   0  0  0  0  0  0  0  0  0  0  0  0
   -0.2470    1.5107   27.7914 C   0  0  0  0  0  0  0  0  0  0  0  0
   -0.3349    2.1913   26.6155 O   0  0  0  0  0  0  0  0  0  0  0  0
    0.4080    2.0672   28.8840 C   0  0  0  0  0  0  0  0  0  0  0  0
    0.3605    1.4135   30.1155 C   0  0  0  0  0  0  0  0  0  0  0  0
   -0.7042   -4.4739   32.9894 C   0  0  0  0  0  0  0  0  0  0  0  0
   -1.2217   -5.6426   32.7338 N   0  0  0  0  0  0  0  0  0  0  0  0
   -0.6019   -6.3306   31.7334 C   0  0  0  0  0  0  0  0  0  0  0  0
   -0.9021   -7.4739   31.0414 C   0  0  0  0  0  0  0  0  0  0  0  0
   -1.9265   -8.2842   31.3355 O   0  0  0  0  0  0  0  0  0  0  0  0
   -0.0062   -7.5791   29.9654 C   0  0  0  0  0  0  0  0  0  0  0  0
   -0.0019   -8.5371   29.0266 N   0  0  0  0  0  0  0  0  0  0  0  0
    0.8849   -6.5426   30.0577 C   0  0  0  0  0  0  0  0  0  0  0  0
    0.6376   -5.9233   31.2569 N   0  0  0  0  0  0  0  0  0  0  0  0
    3.4407   -4.5148   33.1753 C   0  0  0  0  0  0  0  0  0  0  0  0
    4.2935   -4.7860   34.2508 C   0  0  0  0  0  0  0  0  0  0  0  0
    1.6334   -5.8365   39.0988 H   0  0  0  0  0  0  0  0  0  0  0  0
    2.7636   -7.0689   39.7440 H   0  0  0  0  0  0  0  0  0  0  0  0
    2.9838   -5.3380   40.1565 H   0  0  0  0  0  0  0  0  0  0  0  0
    3.5292   -4.9484   37.7655 H   0  0  0  0  0  0  0  0  0  0  0  0
    5.4501   -5.1505   36.6286 H   0  0  0  0  0  0  0  0  0  0  0  0
    5.7583   -6.7287   35.9031 H   0  0  0  0  0  0  0  0  0  0  0  0
    2.5526   -7.3434   35.6842 H   0  0  0  0  0  0  0  0  0  0  0  0
    1.0580   -6.8607   33.8423 H   0  0  0  0  0  0  0  0  0  0  0  0
    0.8556   -2.7438   30.5247 H   0  0  0  0  0  0  0  0  0  0  0  0
   -0.8441   -2.9430   30.9734 H   0  0  0  0  0  0  0  0  0  0  0  0
    1.1718   -1.2847   32.5283 H   0  0  0  0  0  0  0  0  0  0  0  0
   -1.4481   -1.3259   29.1784 H   0  0  0  0  0  0  0  0  0  0  0  0
   -1.3581   -0.1613   27.0139 H   0  0  0  0  0  0  0  0  0  0  0  0
   -0.3438    3.1428   26.8217 H   0  0  0  0  0  0  0  0  0  0  0  0
    0.9074    3.0288   28.8039 H   0  0  0  0  0  0  0  0  0  0  0  0
    0.8021    1.8944   30.9859 H   0  0  0  0  0  0  0  0  0  0  0  0
   -1.1606   -3.8224   33.7536 H   0  0  0  0  0  0  0  0  0  0  0  0
   -2.3624   -7.9702   32.1517 H   0  0  0  0  0  0  0  0  0  0  0  0
   -0.4763   -9.4024   29.2960 H   0  0  0  0  0  0  0  0  0  0  0  0
    0.8803   -8.8111   28.6133 H   0  0  0  0  0  0  0  0  0  0  0  0
    1.7092   -6.2367   29.4305 H   0  0  0  0  0  0  0  0  0  0  0  0
    3.7046   -3.7183   32.4828 H   0  0  0  0  0  0  0  0  0  0  0  0
    5.2065   -4.2019   34.3579 H   0  0  0  0  0  0  0  0  0  0  0  0
  1  2  1  0
  2  3  1  0
  3  4  2  0
  3  5  1  0
  5  6  1  0
  6  7  2  0
  7  8  1  0
  8  9  2  0
  9 10  1  0
 10 11  2  0
 11 12  1  0
 12 13  1  0
 13 14  1  0
 14 15  2  0
 14 16  2  0
 14 17  1  0
 17 18  2  0
 18 19  1  0
 19 20  2  0
 20 21  1  0
 20 22  1  0
 22 23  2  0
 11 24  1  0
 24 25  2  0
 25 26  1  0
 26 27  2  0
 27 28  1  0
 27 29  1  0
 29 30  1  0
 29 31  2  0
 31 32  1  0
  9 33  1  0
 33 34  2  0
 34  6  1  0
 32 10  1  0
 23 17  1  0
 32 26  1  0
  1 35  1  0
  1 36  1  0
  1 37  1  0
  2 38  1  0
  5 39  1  0
  5 40  1  0
  7 41  1  0
  8 42  1  0
 12 43  1  0
 12 44  1  0
 13 45  1  0
 18 46  1  0
 19 47  1  0
 21 48  1  0
 22 49  1  0
 23 50  1  0
 24 51  1  0
 28 52  1  0
 30 53  1  0
 30 54  1  0
 31 55  1  0
 33 56  1  0
 34 57  1  0
M  END
>  <Energy>  (845) 
43.62614442793182

>  <compound_id>  (845) 
2910

>  <target_id>  (845) 
1

>  <reference_id>  (845) 
168

>  <inspiration_ids>  (845) 
[188, 168]

>  <energy_score>  (845) 
-3.086794621286458

>  <distance_score>  (845) 
3.0197618493921943

>  <path>  (845) 
/opt/xchem-fragalysis-2/maxwin/BulkDock/SCRATCH/505736/C2910-P168/C2910-P168.minimised.mol

>  <scratch_subdir>  (845) 
/opt/xchem-fragalysis-2/maxwin/BulkDock/SCRATCH/505736/C2910-P168

>  <fragmenstein_runtime>  (845) 
17.762738943099976

>  <fragmenstein_outcome>  (845) 
too moved

>  <fragmenstein_mode>  (845) 
expansion

>  <fragmenstein_error>  (845) 


$$$$
C2882-P188
     RDKit          3D

 42 44  0  0  0  0  0  0  0  0999 V2000
    1.1059   -3.3479   28.7642 N   0  0  0  0  0  0  0  0  0  0  0  0
    0.4379   -3.9792   29.9016 C   0  0  0  0  0  0  0  0  0  0  0  0
    1.3087   -5.2048   30.2096 C   0  0  0  0  0  0  0  0  0  0  0  0
    0.7146   -5.9973   31.3690 C   0  0  0  0  0  0  0  0  0  0  0  0
   -0.2248   -6.9902   30.8773 N   0  0  0  0  0  0  0  0  0  0  0  0
   -1.2209   -7.3595   31.8588 C   0  0  0  0  0  0  0  0  0  0  0  0
   -1.6221   -8.6780   31.5679 O   0  0  0  0  0  0  0  0  0  0  0  0
   -0.7528   -7.1960   33.3022 C   0  0  0  0  0  0  0  0  0  0  0  0
   -0.2870   -5.7604   33.5521 C   0  0  0  0  0  0  0  0  0  0  0  0
    0.0280   -5.1255   32.2842 N   0  0  0  0  0  0  0  0  0  0  0  0
    0.6187   -3.8117   32.3592 C   0  0  0  0  0  0  0  0  0  0  0  0
    0.3924   -3.0697   31.0835 N   0  0  0  0  0  0  0  0  0  0  0  0
   -1.0251   -2.1097   31.2623 S   0  0  0  0  0  0  0  0  0  0  0  0
   -2.1887   -2.9693   31.1669 O   0  0  0  0  0  0  0  0  0  0  0  0
   -0.8483   -1.2708   32.4340 O   0  0  0  0  0  0  0  0  0  0  0  0
   -1.0051   -1.0118   29.8734 C   0  0  0  0  0  0  0  0  0  0  0  0
   -1.5912   -1.4104   28.6789 C   0  0  0  0  0  0  0  0  0  0  0  0
   -1.7100   -0.4969   27.6374 C   0  0  0  0  0  0  0  0  0  0  0  0
   -1.2788    0.8091   27.7974 C   0  0  0  0  0  0  0  0  0  0  0  0
   -1.5059    1.7301   26.8218 O   0  0  0  0  0  0  0  0  0  0  0  0
   -0.6502    1.2041   28.9667 C   0  0  0  0  0  0  0  0  0  0  0  0
   -0.5206    0.2938   30.0191 C   0  0  0  0  0  0  0  0  0  0  0  0
    1.7827   -2.6907   29.1501 H   0  0  0  0  0  0  0  0  0  0  0  0
    0.4372   -2.7636   28.2636 H   0  0  0  0  0  0  0  0  0  0  0  0
   -0.5632   -4.3074   29.6048 H   0  0  0  0  0  0  0  0  0  0  0  0
    1.4338   -5.8443   29.3271 H   0  0  0  0  0  0  0  0  0  0  0  0
    2.3246   -4.8819   30.4844 H   0  0  0  0  0  0  0  0  0  0  0  0
    1.5416   -6.4977   31.8855 H   0  0  0  0  0  0  0  0  0  0  0  0
    0.2616   -7.8491   30.6249 H   0  0  0  0  0  0  0  0  0  0  0  0
   -2.0821   -6.7259   31.6959 H   0  0  0  0  0  0  0  0  0  0  0  0
   -2.3982   -8.8737   32.1305 H   0  0  0  0  0  0  0  0  0  0  0  0
   -1.5434   -7.4798   34.0057 H   0  0  0  0  0  0  0  0  0  0  0  0
    0.0809   -7.8720   33.4932 H   0  0  0  0  0  0  0  0  0  0  0  0
    0.5754   -5.7682   34.2298 H   0  0  0  0  0  0  0  0  0  0  0  0
   -1.0871   -5.2015   34.0486 H   0  0  0  0  0  0  0  0  0  0  0  0
    0.2189   -3.2600   33.2170 H   0  0  0  0  0  0  0  0  0  0  0  0
    1.6993   -3.8591   32.5517 H   0  0  0  0  0  0  0  0  0  0  0  0
   -1.9860   -2.4133   28.5512 H   0  0  0  0  0  0  0  0  0  0  0  0
   -2.1792   -0.8057   26.7115 H   0  0  0  0  0  0  0  0  0  0  0  0
   -2.3921    1.5460   26.4589 H   0  0  0  0  0  0  0  0  0  0  0  0
   -0.3039    2.2286   29.0722 H   0  0  0  0  0  0  0  0  0  0  0  0
   -0.0688    0.6203   30.9525 H   0  0  0  0  0  0  0  0  0  0  0  0
  1  2  1  0
  2  3  1  0
  3  4  1  0
  4  5  1  0
  5  6  1  0
  6  7  1  0
  6  8  1  0
  8  9  1  0
  9 10  1  0
 10 11  1  0
 11 12  1  0
 12 13  1  0
 13 14  2  0
 13 15  2  0
 13 16  1  0
 16 17  2  0
 17 18  1  0
 18 19  2  0
 19 20  1  0
 19 21  1  0
 21 22  2  0
 12  2  1  0
 22 16  1  0
 10  4  1  0
  1 23  1  0
  1 24  1  0
  2 25  1  0
  3 26  1  0
  3 27  1  0
  4 28  1  0
  5 29  1  0
  6 30  1  0
  7 31  1  0
  8 32  1  0
  8 33  1  0
  9 34  1  0
  9 35  1  0
 11 36  1  0
 11 37  1  0
 17 38  1  0
 18 39  1  0
 20 40  1  0
 21 41  1  0
 22 42  1  0
M  END
>  <Energy>  (846) 
-234.10636548400467

>  <compound_id>  (846) 
2882

>  <target_id>  (846) 
1

>  <reference_id>  (846) 
188

>  <inspiration_ids>  (846) 
[188, 177]

>  <energy_score>  (846) 
-51.39772347437594

>  <distance_score>  (846) 
1.1180246526737965

>  <path>  (846) 
/opt/xchem-fragalysis-2/maxwin/BulkDock/SCRATCH/505736/C2882-P188/C2882-P188.minimised.mol

>  <scratch_subdir>  (846) 
/opt/xchem-fragalysis-2/maxwin/BulkDock/SCRATCH/505736/C2882-P188

>  <fragmenstein_runtime>  (846) 
7.933700323104858

>  <fragmenstein_outcome>  (846) 
too moved

>  <fragmenstein_mode>  (846) 
expansion

>  <fragmenstein_error>  (846) 


$$$$
C2882-P177
     RDKit          3D

 42 44  0  0  0  0  0  0  0  0999 V2000
    1.1819   -3.1002   28.9028 N   0  0  0  0  0  0  0  0  0  0  0  0
    0.4663   -3.7850   29.9769 C   0  0  0  0  0  0  0  0  0  0  0  0
    1.2645   -5.0567   30.1792 C   0  0  0  0  0  0  0  0  0  0  0  0
    0.6408   -5.8923   31.2879 C   0  0  0  0  0  0  0  0  0  0  0  0
   -0.3866   -6.7404   30.7339 N   0  0  0  0  0  0  0  0  0  0  0  0
   -1.2312   -7.3286   31.7339 C   0  0  0  0  0  0  0  0  0  0  0  0
   -1.5592   -8.6282   31.3218 O   0  0  0  0  0  0  0  0  0  0  0  0
   -0.7216   -7.2277   33.1689 C   0  0  0  0  0  0  0  0  0  0  0  0
   -0.2944   -5.7996   33.5147 C   0  0  0  0  0  0  0  0  0  0  0  0
    0.0353   -5.0818   32.3010 N   0  0  0  0  0  0  0  0  0  0  0  0
    0.6895   -3.8114   32.4459 C   0  0  0  0  0  0  0  0  0  0  0  0
    0.4201   -2.9955   31.2394 N   0  0  0  0  0  0  0  0  0  0  0  0
   -1.0353   -2.1402   31.4858 S   0  0  0  0  0  0  0  0  0  0  0  0
   -2.1706   -3.0220   31.2937 O   0  0  0  0  0  0  0  0  0  0  0  0
   -0.9186   -1.3596   32.7027 O   0  0  0  0  0  0  0  0  0  0  0  0
   -0.9945   -0.9918   30.1569 C   0  0  0  0  0  0  0  0  0  0  0  0
   -1.5625   -1.3404   28.9342 C   0  0  0  0  0  0  0  0  0  0  0  0
   -1.8128   -0.3410   28.0201 C   0  0  0  0  0  0  0  0  0  0  0  0
   -1.5789    0.9706   28.4068 C   0  0  0  0  0  0  0  0  0  0  0  0
   -2.3472    1.9400   27.8373 O   0  0  0  0  0  0  0  0  0  0  0  0
   -0.7721    1.2850   29.4806 C   0  0  0  0  0  0  0  0  0  0  0  0
   -0.5018    0.2909   30.3977 C   0  0  0  0  0  0  0  0  0  0  0  0
    0.8760   -2.1338   28.8384 H   0  0  0  0  0  0  0  0  0  0  0  0
    0.9321   -3.5276   28.0118 H   0  0  0  0  0  0  0  0  0  0  0  0
   -0.5400   -4.0437   29.6316 H   0  0  0  0  0  0  0  0  0  0  0  0
    1.3281   -5.6185   29.2373 H   0  0  0  0  0  0  0  0  0  0  0  0
    2.2973   -4.8059   30.4599 H   0  0  0  0  0  0  0  0  0  0  0  0
    1.4380   -6.4836   31.7467 H   0  0  0  0  0  0  0  0  0  0  0  0
   -0.0225   -7.4512   30.1093 H   0  0  0  0  0  0  0  0  0  0  0  0
   -2.1556   -6.7864   31.7042 H   0  0  0  0  0  0  0  0  0  0  0  0
   -0.7466   -9.1147   31.1063 H   0  0  0  0  0  0  0  0  0  0  0  0
   -1.4726   -7.5908   33.8780 H   0  0  0  0  0  0  0  0  0  0  0  0
    0.1485   -7.8622   33.2852 H   0  0  0  0  0  0  0  0  0  0  0  0
    0.5559   -5.8372   34.2069 H   0  0  0  0  0  0  0  0  0  0  0  0
   -1.1092   -5.2855   34.0317 H   0  0  0  0  0  0  0  0  0  0  0  0
    0.3581   -3.2980   33.3556 H   0  0  0  0  0  0  0  0  0  0  0  0
    1.7749   -3.9146   32.5794 H   0  0  0  0  0  0  0  0  0  0  0  0
   -1.9089   -2.3493   28.7290 H   0  0  0  0  0  0  0  0  0  0  0  0
   -2.3481   -0.5668   27.1064 H   0  0  0  0  0  0  0  0  0  0  0  0
   -2.5812    2.6126   28.5063 H   0  0  0  0  0  0  0  0  0  0  0  0
   -0.4449    2.3039   29.6542 H   0  0  0  0  0  0  0  0  0  0  0  0
    0.0166    0.5312   31.3225 H   0  0  0  0  0  0  0  0  0  0  0  0
  1  2  1  0
  2  3  1  0
  3  4  1  0
  4  5  1  0
  5  6  1  0
  6  7  1  0
  6  8  1  0
  8  9  1  0
  9 10  1  0
 10 11  1  0
 11 12  1  0
 12 13  1  0
 13 14  2  0
 13 15  2  0
 13 16  1  0
 16 17  2  0
 17 18  1  0
 18 19  2  0
 19 20  1  0
 19 21  1  0
 21 22  2  0
 12  2  1  0
 22 16  1  0
 10  4  1  0
  1 23  1  0
  1 24  1  0
  2 25  1  0
  3 26  1  0
  3 27  1  0
  4 28  1  0
  5 29  1  0
  6 30  1  0
  7 31  1  0
  8 32  1  0
  8 33  1  0
  9 34  1  0
  9 35  1  0
 11 36  1  0
 11 37  1  0
 17 38  1  0
 18 39  1  0
 20 40  1  0
 21 41  1  0
 22 42  1  0
M  END
>  <Energy>  (847) 
-218.1736582078413

>  <compound_id>  (847) 
2882

>  <target_id>  (847) 
1

>  <reference_id>  (847) 
177

>  <inspiration_ids>  (847) 
[188, 177]

>  <energy_score>  (847) 
-35.46501619821208

>  <distance_score>  (847) 
1.0900736275772462

>  <path>  (847) 
/opt/xchem-fragalysis-2/maxwin/BulkDock/SCRATCH/505736/C2882-P177/C2882-P177.minimised.mol

>  <scratch_subdir>  (847) 
/opt/xchem-fragalysis-2/maxwin/BulkDock/SCRATCH/505736/C2882-P177

>  <fragmenstein_runtime>  (847) 
5.26833438873291

>  <fragmenstein_outcome>  (847) 
too moved

>  <fragmenstein_mode>  (847) 
expansion

>  <fragmenstein_error>  (847) 


$$$$
C2882-P188
     RDKit          3D

 42 44  0  0  0  0  0  0  0  0999 V2000
    1.3933   -2.8348   29.1466 N   0  0  0  0  0  0  0  0  0  0  0  0
    1.2176   -3.6115   30.3506 C   0  0  0  0  0  0  0  0  0  0  0  0
    0.6038   -4.9693   30.0750 C   0  0  0  0  0  0  0  0  0  0  0  0
    0.6969   -5.8130   31.3460 C   0  0  0  0  0  0  0  0  0  0  0  0
    0.0699   -7.1101   31.1399 N   0  0  0  0  0  0  0  0  0  0  0  0
   -1.1462   -7.2649   31.8980 C   0  0  0  0  0  0  0  0  0  0  0  0
   -1.7254   -8.4997   31.5314 O   0  0  0  0  0  0  0  0  0  0  0  0
   -0.8539   -7.1439   33.3884 C   0  0  0  0  0  0  0  0  0  0  0  0
    0.0422   -5.9364   33.6699 C   0  0  0  0  0  0  0  0  0  0  0  0
    0.1212   -5.1094   32.4734 N   0  0  0  0  0  0  0  0  0  0  0  0
    0.7404   -3.8137   32.6856 C   0  0  0  0  0  0  0  0  0  0  0  0
    0.5829   -2.9413   31.4849 N   0  0  0  0  0  0  0  0  0  0  0  0
   -0.9692   -2.2387   31.4461 S   0  0  0  0  0  0  0  0  0  0  0  0
   -1.9667   -3.2614   31.1956 O   0  0  0  0  0  0  0  0  0  0  0  0
   -1.0893   -1.3950   32.6209 O   0  0  0  0  0  0  0  0  0  0  0  0
   -0.9777   -1.1327   30.0582 C   0  0  0  0  0  0  0  0  0  0  0  0
   -1.5443   -1.5604   28.8597 C   0  0  0  0  0  0  0  0  0  0  0  0
   -1.6725   -0.6690   27.8012 C   0  0  0  0  0  0  0  0  0  0  0  0
   -1.2614    0.6463   27.9439 C   0  0  0  0  0  0  0  0  0  0  0  0
   -1.4801    1.5487   26.9480 O   0  0  0  0  0  0  0  0  0  0  0  0
   -0.6603    1.0722   29.1197 C   0  0  0  0  0  0  0  0  0  0  0  0
   -0.5307    0.1853   30.1942 C   0  0  0  0  0  0  0  0  0  0  0  0
    0.5419   -2.8043   28.5916 H   0  0  0  0  0  0  0  0  0  0  0  0
    1.6206   -1.8733   29.3931 H   0  0  0  0  0  0  0  0  0  0  0  0
    2.2567   -3.7932   30.6638 H   0  0  0  0  0  0  0  0  0  0  0  0
    1.1630   -5.4682   29.2742 H   0  0  0  0  0  0  0  0  0  0  0  0
   -0.4333   -4.8650   29.7380 H   0  0  0  0  0  0  0  0  0  0  0  0
    1.7588   -6.0031   31.5472 H   0  0  0  0  0  0  0  0  0  0  0  0
   -0.1670   -7.2648   30.1665 H   0  0  0  0  0  0  0  0  0  0  0  0
   -1.8549   -6.4956   31.6006 H   0  0  0  0  0  0  0  0  0  0  0  0
   -2.3747   -8.7336   32.2235 H   0  0  0  0  0  0  0  0  0  0  0  0
   -1.7954   -7.0499   33.9390 H   0  0  0  0  0  0  0  0  0  0  0  0
   -0.3830   -8.0476   33.7727 H   0  0  0  0  0  0  0  0  0  0  0  0
   -0.3865   -5.3733   34.5078 H   0  0  0  0  0  0  0  0  0  0  0  0
    1.0396   -6.2686   33.9851 H   0  0  0  0  0  0  0  0  0  0  0  0
    0.3044   -3.3121   33.5581 H   0  0  0  0  0  0  0  0  0  0  0  0
    1.8093   -3.9126   32.9196 H   0  0  0  0  0  0  0  0  0  0  0  0
   -1.9096   -2.5764   28.7406 H   0  0  0  0  0  0  0  0  0  0  0  0
   -2.1318   -1.0077   26.8805 H   0  0  0  0  0  0  0  0  0  0  0  0
   -2.2827    1.2653   26.4745 H   0  0  0  0  0  0  0  0  0  0  0  0
   -0.3320    2.1043   29.2093 H   0  0  0  0  0  0  0  0  0  0  0  0
   -0.1022    0.5325   31.1311 H   0  0  0  0  0  0  0  0  0  0  0  0
  1  2  1  0
  2  3  1  0
  3  4  1  0
  4  5  1  0
  5  6  1  0
  6  7  1  0
  6  8  1  0
  8  9  1  0
  9 10  1  0
 10 11  1  0
 11 12  1  0
 12 13  1  0
 13 14  2  0
 13 15  2  0
 13 16  1  0
 16 17  2  0
 17 18  1  0
 18 19  2  0
 19 20  1  0
 19 21  1  0
 21 22  2  0
 12  2  1  0
 22 16  1  0
 10  4  1  0
  1 23  1  0
  1 24  1  0
  2 25  1  0
  3 26  1  0
  3 27  1  0
  4 28  1  0
  5 29  1  0
  6 30  1  0
  7 31  1  0
  8 32  1  0
  8 33  1  0
  9 34  1  0
  9 35  1  0
 11 36  1  0
 11 37  1  0
 17 38  1  0
 18 39  1  0
 20 40  1  0
 21 41  1  0
 22 42  1  0
M  END
>  <Energy>  (848) 
-232.14013273939096

>  <compound_id>  (848) 
2882

>  <target_id>  (848) 
1

>  <reference_id>  (848) 
188

>  <inspiration_ids>  (848) 
[188, 180]

>  <energy_score>  (848) 
-45.10275375857864

>  <distance_score>  (848) 
1.1024446523536444

>  <path>  (848) 
/opt/xchem-fragalysis-2/maxwin/BulkDock/SCRATCH/505736/C2882-P188/C2882-P188.minimised.mol

>  <scratch_subdir>  (848) 
/opt/xchem-fragalysis-2/maxwin/BulkDock/SCRATCH/505736/C2882-P188

>  <fragmenstein_runtime>  (848) 
3.0415806770324707

>  <fragmenstein_outcome>  (848) 
too moved

>  <fragmenstein_mode>  (848) 
expansion

>  <fragmenstein_error>  (848) 


$$$$
C2882-P180
     RDKit          3D

 42 44  0  0  0  0  0  0  0  0999 V2000
    1.5167   -2.9003   29.1661 N   0  0  0  0  0  0  0  0  0  0  0  0
    1.3190   -3.6838   30.3613 C   0  0  0  0  0  0  0  0  0  0  0  0
    0.7097   -5.0438   30.0770 C   0  0  0  0  0  0  0  0  0  0  0  0
    0.8065   -5.8921   31.3465 C   0  0  0  0  0  0  0  0  0  0  0  0
    0.1875   -7.1959   31.1443 N   0  0  0  0  0  0  0  0  0  0  0  0
   -1.0415   -7.3400   31.8841 C   0  0  0  0  0  0  0  0  0  0  0  0
   -1.6335   -8.5684   31.5174 O   0  0  0  0  0  0  0  0  0  0  0  0
   -0.7636   -7.2245   33.3782 C   0  0  0  0  0  0  0  0  0  0  0  0
    0.1353   -6.0196   33.6672 C   0  0  0  0  0  0  0  0  0  0  0  0
    0.2199   -5.1910   32.4727 N   0  0  0  0  0  0  0  0  0  0  0  0
    0.8271   -3.8895   32.6905 C   0  0  0  0  0  0  0  0  0  0  0  0
    0.6726   -3.0157   31.4905 N   0  0  0  0  0  0  0  0  0  0  0  0
   -0.8781   -2.3083   31.4462 S   0  0  0  0  0  0  0  0  0  0  0  0
   -1.8742   -3.3303   31.1864 O   0  0  0  0  0  0  0  0  0  0  0  0
   -1.0014   -1.4784   32.6304 O   0  0  0  0  0  0  0  0  0  0  0  0
   -0.8854   -1.1912   30.0649 C   0  0  0  0  0  0  0  0  0  0  0  0
   -1.3475   -1.6525   28.8332 C   0  0  0  0  0  0  0  0  0  0  0  0
   -1.5012   -0.7628   27.7772 C   0  0  0  0  0  0  0  0  0  0  0  0
   -1.2155    0.5835   27.9513 C   0  0  0  0  0  0  0  0  0  0  0  0
   -1.4589    1.4737   26.9490 O   0  0  0  0  0  0  0  0  0  0  0  0
   -0.7408    1.0527   29.1691 C   0  0  0  0  0  0  0  0  0  0  0  0
   -0.5828    0.1644   30.2392 C   0  0  0  0  0  0  0  0  0  0  0  0
    0.6905   -2.8952   28.5761 H   0  0  0  0  0  0  0  0  0  0  0  0
    1.7124   -1.9343   29.4216 H   0  0  0  0  0  0  0  0  0  0  0  0
    2.3541   -3.8671   30.6870 H   0  0  0  0  0  0  0  0  0  0  0  0
    1.2696   -5.5380   29.2735 H   0  0  0  0  0  0  0  0  0  0  0  0
   -0.3273   -4.9423   29.7397 H   0  0  0  0  0  0  0  0  0  0  0  0
    1.8697   -6.0804   31.5479 H   0  0  0  0  0  0  0  0  0  0  0  0
   -0.0289   -7.3620   30.1676 H   0  0  0  0  0  0  0  0  0  0  0  0
   -1.7377   -6.5637   31.5763 H   0  0  0  0  0  0  0  0  0  0  0  0
   -2.2967   -8.7862   32.2010 H   0  0  0  0  0  0  0  0  0  0  0  0
   -1.7120   -7.1258   33.9172 H   0  0  0  0  0  0  0  0  0  0  0  0
   -0.2995   -8.1333   33.7654 H   0  0  0  0  0  0  0  0  0  0  0  0
   -0.2956   -5.4584   34.5051 H   0  0  0  0  0  0  0  0  0  0  0  0
    1.1308   -6.3549   33.9852 H   0  0  0  0  0  0  0  0  0  0  0  0
    0.3808   -3.3937   33.5610 H   0  0  0  0  0  0  0  0  0  0  0  0
    1.8948   -3.9811   32.9329 H   0  0  0  0  0  0  0  0  0  0  0  0
   -1.6371   -2.6913   28.6930 H   0  0  0  0  0  0  0  0  0  0  0  0
   -1.9025   -1.1292   26.8411 H   0  0  0  0  0  0  0  0  0  0  0  0
   -2.1222    1.0741   26.3598 H   0  0  0  0  0  0  0  0  0  0  0  0
   -0.5374    2.1132   29.2947 H   0  0  0  0  0  0  0  0  0  0  0  0
   -0.2538    0.5412   31.2046 H   0  0  0  0  0  0  0  0  0  0  0  0
  1  2  1  0
  2  3  1  0
  3  4  1  0
  4  5  1  0
  5  6  1  0
  6  7  1  0
  6  8  1  0
  8  9  1  0
  9 10  1  0
 10 11  1  0
 11 12  1  0
 12 13  1  0
 13 14  2  0
 13 15  2  0
 13 16  1  0
 16 17  2  0
 17 18  1  0
 18 19  2  0
 19 20  1  0
 19 21  1  0
 21 22  2  0
 12  2  1  0
 22 16  1  0
 10  4  1  0
  1 23  1  0
  1 24  1  0
  2 25  1  0
  3 26  1  0
  3 27  1  0
  4 28  1  0
  5 29  1  0
  6 30  1  0
  7 31  1  0
  8 32  1  0
  8 33  1  0
  9 34  1  0
  9 35  1  0
 11 36  1  0
 11 37  1  0
 17 38  1  0
 18 39  1  0
 20 40  1  0
 21 41  1  0
 22 42  1  0
M  END
>  <Energy>  (849) 
-231.49262924299552

>  <compound_id>  (849) 
2882

>  <target_id>  (849) 
1

>  <reference_id>  (849) 
180

>  <inspiration_ids>  (849) 
[188, 180]

>  <energy_score>  (849) 
-44.455250262184016

>  <distance_score>  (849) 
1.1224251760665065

>  <path>  (849) 
/opt/xchem-fragalysis-2/maxwin/BulkDock/SCRATCH/505736/C2882-P180/C2882-P180.minimised.mol

>  <scratch_subdir>  (849) 
/opt/xchem-fragalysis-2/maxwin/BulkDock/SCRATCH/505736/C2882-P180

>  <fragmenstein_runtime>  (849) 
2.9876508712768555

>  <fragmenstein_outcome>  (849) 
too moved

>  <fragmenstein_mode>  (849) 
expansion

>  <fragmenstein_error>  (849) 


$$$$
C2883-P188
     RDKit          3D

 60 63  0  0  0  0  0  0  0  0999 V2000
   -1.6836   -8.1774   32.3702 C   0  0  0  0  0  0  0  0  0  0  0  0
   -1.8478   -7.4160   31.2059 O   0  0  0  0  0  0  0  0  0  0  0  0
   -0.7898   -6.5442   30.8481 C   0  0  0  0  0  0  0  0  0  0  0  0
    0.5968   -6.9550   31.2321 C   0  0  0  0  0  0  0  0  0  0  0  0
    1.0024   -6.6957   32.6753 C   0  0  0  0  0  0  0  0  0  0  0  0
    0.4410   -5.4416   33.3435 C   0  0  0  0  0  0  0  0  0  0  0  0
    0.1260   -5.8897   34.7703 C   0  0  0  0  0  0  0  0  0  0  0  0
    0.9078   -5.4849   35.7525 C   0  0  0  0  0  0  0  0  0  0  0  0
    0.9039   -5.9205   37.0499 N   0  0  0  0  0  0  0  0  0  0  0  0
    2.1698   -5.4001   37.5443 C   0  0  0  0  0  0  0  0  0  0  0  0
    2.7620   -4.4339   36.5921 N   0  0  0  0  0  0  0  0  0  0  0  0
    1.9339   -4.6100   35.4853 N   0  0  0  0  0  0  0  0  0  0  0  0
    2.2364   -3.9852   34.3420 N   0  0  0  0  0  0  0  0  0  0  0  0
    1.5501   -4.3368   33.2929 C   0  0  0  0  0  0  0  0  0  0  0  0
    2.0127   -3.6974   31.9741 C   0  0  0  0  0  0  0  0  0  0  0  0
    1.3960   -2.3529   31.5326 C   0  0  0  0  0  0  0  0  0  0  0  0
    0.2408   -1.9173   32.3124 N   0  0  0  0  0  0  0  0  0  0  0  0
   -1.2215   -1.3590   31.7146 S   0  0  0  0  0  0  0  0  0  0  0  0
   -2.1487   -2.4501   31.5071 O   0  0  0  0  0  0  0  0  0  0  0  0
   -1.5952   -0.3031   32.6364 O   0  0  0  0  0  0  0  0  0  0  0  0
   -0.9507   -0.5790   30.1473 C   0  0  0  0  0  0  0  0  0  0  0  0
   -1.4653   -1.1757   28.9939 C   0  0  0  0  0  0  0  0  0  0  0  0
   -1.5726   -0.4406   27.8168 C   0  0  0  0  0  0  0  0  0  0  0  0
   -1.2186    0.8968   27.8080 C   0  0  0  0  0  0  0  0  0  0  0  0
   -1.5298    1.6400   26.7090 O   0  0  0  0  0  0  0  0  0  0  0  0
   -0.6314    1.4793   28.9238 C   0  0  0  0  0  0  0  0  0  0  0  0
   -0.4908    0.7368   30.1023 C   0  0  0  0  0  0  0  0  0  0  0  0
   -0.8645   -4.9406   32.7783 C   0  0  0  0  0  0  0  0  0  0  0  0
   -0.9797   -5.0936   31.2724 C   0  0  0  0  0  0  0  0  0  0  0  0
   -0.0979   -4.2193   30.5931 O   0  0  0  0  0  0  0  0  0  0  0  0
   -0.0978   -4.2325   29.1816 C   0  0  0  0  0  0  0  0  0  0  0  0
   -0.9913   -8.9846   32.1686 H   0  0  0  0  0  0  0  0  0  0  0  0
   -1.3933   -7.5984   33.2356 H   0  0  0  0  0  0  0  0  0  0  0  0
   -2.6429   -8.5823   32.6241 H   0  0  0  0  0  0  0  0  0  0  0  0
   -0.8041   -6.5951   29.7598 H   0  0  0  0  0  0  0  0  0  0  0  0
    1.2966   -6.4125   30.5887 H   0  0  0  0  0  0  0  0  0  0  0  0
    0.6886   -8.0036   30.9688 H   0  0  0  0  0  0  0  0  0  0  0  0
    0.7486   -7.5861   33.2569 H   0  0  0  0  0  0  0  0  0  0  0  0
    2.0965   -6.6488   32.7219 H   0  0  0  0  0  0  0  0  0  0  0  0
   -0.6707   -6.5931   34.9819 H   0  0  0  0  0  0  0  0  0  0  0  0
    0.7605   -6.9210   37.1399 H   0  0  0  0  0  0  0  0  0  0  0  0
    2.8745   -6.2287   37.6865 H   0  0  0  0  0  0  0  0  0  0  0  0
    2.0222   -4.9258   38.5210 H   0  0  0  0  0  0  0  0  0  0  0  0
    2.5596   -3.5005   36.9428 H   0  0  0  0  0  0  0  0  0  0  0  0
    3.0900   -3.5049   32.1015 H   0  0  0  0  0  0  0  0  0  0  0  0
    2.0228   -4.4393   31.1756 H   0  0  0  0  0  0  0  0  0  0  0  0
    2.1626   -1.5816   31.6955 H   0  0  0  0  0  0  0  0  0  0  0  0
    1.2312   -2.3099   30.4576 H   0  0  0  0  0  0  0  0  0  0  0  0
    0.4654   -1.4744   33.2060 H   0  0  0  0  0  0  0  0  0  0  0  0
   -1.8795   -2.1791   29.0103 H   0  0  0  0  0  0  0  0  0  0  0  0
   -2.0338   -0.8857   26.9416 H   0  0  0  0  0  0  0  0  0  0  0  0
   -1.8710    2.4956   27.0335 H   0  0  0  0  0  0  0  0  0  0  0  0
   -0.3315    2.5238   28.9025 H   0  0  0  0  0  0  0  0  0  0  0  0
   -0.1033    1.2182   30.9967 H   0  0  0  0  0  0  0  0  0  0  0  0
   -1.0152   -3.9086   33.0962 H   0  0  0  0  0  0  0  0  0  0  0  0
   -1.7029   -5.4839   33.2210 H   0  0  0  0  0  0  0  0  0  0  0  0
   -1.9595   -4.7112   31.0730 H   0  0  0  0  0  0  0  0  0  0  0  0
    0.2977   -3.2875   28.8048 H   0  0  0  0  0  0  0  0  0  0  0  0
   -1.0961   -4.3715   28.7759 H   0  0  0  0  0  0  0  0  0  0  0  0
    0.6097   -4.9928   28.8579 H   0  0  0  0  0  0  0  0  0  0  0  0
  1  2  1  0
  2  3  1  0
  3  4  1  0
  4  5  1  0
  5  6  1  0
  6  7  1  0
  7  8  2  0
  8  9  1  0
  9 10  1  0
 10 11  1  0
 11 12  1  0
 12 13  1  0
 13 14  2  0
 14 15  1  0
 15 16  1  0
 16 17  1  0
 17 18  1  0
 18 19  2  0
 18 20  2  0
 18 21  1  0
 21 22  2  0
 22 23  1  0
 23 24  2  0
 24 25  1  0
 24 26  1  0
 26 27  2  0
  6 28  1  0
 28 29  1  0
 29 30  1  0
 30 31  1  0
 29  3  1  0
 14  6  1  0
 27 21  1  0
 12  8  1  0
  1 32  1  0
  1 33  1  0
  1 34  1  0
  3 35  1  0
  4 36  1  0
  4 37  1  0
  5 38  1  0
  5 39  1  0
  7 40  1  0
  9 41  1  0
 10 42  1  0
 10 43  1  0
 11 44  1  0
 15 45  1  0
 15 46  1  0
 16 47  1  0
 16 48  1  0
 17 49  1  0
 22 50  1  0
 23 51  1  0
 25 52  1  0
 26 53  1  0
 27 54  1  0
 28 55  1  0
 28 56  1  0
 29 57  1  0
 31 58  1  0
 31 59  1  0
 31 60  1  0
M  END
>  <Energy>  (850) 
28.356117375109562

>  <compound_id>  (850) 
2883

>  <target_id>  (850) 
1

>  <reference_id>  (850) 
188

>  <inspiration_ids>  (850) 
[188, 183]

>  <energy_score>  (850) 
-43.52339854973704

>  <distance_score>  (850) 
2.1807187524718072

>  <path>  (850) 
/opt/xchem-fragalysis-2/maxwin/BulkDock/SCRATCH/505736/C2883-P188/C2883-P188.minimised.mol

>  <scratch_subdir>  (850) 
/opt/xchem-fragalysis-2/maxwin/BulkDock/SCRATCH/505736/C2883-P188

>  <fragmenstein_runtime>  (850) 
12.598053216934204

>  <fragmenstein_outcome>  (850) 
too moved

>  <fragmenstein_mode>  (850) 
expansion

>  <fragmenstein_error>  (850) 


$$$$
C2883-P183
     RDKit          3D

 60 63  0  0  0  0  0  0  0  0999 V2000
   -1.5701   -8.3564   31.5966 C   0  0  0  0  0  0  0  0  0  0  0  0
   -0.6565   -7.8309   32.5058 O   0  0  0  0  0  0  0  0  0  0  0  0
    0.4339   -7.1626   31.8811 C   0  0  0  0  0  0  0  0  0  0  0  0
    1.4478   -6.9831   33.0015 C   0  0  0  0  0  0  0  0  0  0  0  0
    1.4629   -5.6291   33.6302 C   0  0  0  0  0  0  0  0  0  0  0  0
    0.0357   -5.0843   33.7894 C   0  0  0  0  0  0  0  0  0  0  0  0
   -0.6188   -5.9273   34.8767 C   0  0  0  0  0  0  0  0  0  0  0  0
   -0.1611   -5.7110   36.1050 C   0  0  0  0  0  0  0  0  0  0  0  0
   -0.2722   -6.5040   37.2129 N   0  0  0  0  0  0  0  0  0  0  0  0
    0.7781   -5.9651   38.0660 C   0  0  0  0  0  0  0  0  0  0  0  0
    1.2219   -4.6312   37.5910 N   0  0  0  0  0  0  0  0  0  0  0  0
    0.7024   -4.6384   36.3010 N   0  0  0  0  0  0  0  0  0  0  0  0
    0.7367   -3.5132   35.5524 N   0  0  0  0  0  0  0  0  0  0  0  0
    0.3247   -3.6919   34.3273 C   0  0  0  0  0  0  0  0  0  0  0  0
    0.1571   -2.4859   33.4517 C   0  0  0  0  0  0  0  0  0  0  0  0
    0.9742   -2.3882   32.1781 C   0  0  0  0  0  0  0  0  0  0  0  0
    0.2123   -1.9876   30.9948 N   0  0  0  0  0  0  0  0  0  0  0  0
   -1.2835   -1.2214   31.1439 S   0  0  0  0  0  0  0  0  0  0  0  0
   -2.3193   -2.2329   31.1761 O   0  0  0  0  0  0  0  0  0  0  0  0
   -1.1754   -0.2225   32.1838 O   0  0  0  0  0  0  0  0  0  0  0  0
   -1.3332   -0.3862   29.6054 C   0  0  0  0  0  0  0  0  0  0  0  0
   -1.9146   -1.0090   28.5117 C   0  0  0  0  0  0  0  0  0  0  0  0
   -2.0513   -0.2878   27.3358 C   0  0  0  0  0  0  0  0  0  0  0  0
   -1.6335    1.0361   27.2734 C   0  0  0  0  0  0  0  0  0  0  0  0
   -1.8795    1.7899   26.1669 O   0  0  0  0  0  0  0  0  0  0  0  0
   -0.9825    1.6305   28.3414 C   0  0  0  0  0  0  0  0  0  0  0  0
   -0.8165    0.9078   29.5166 C   0  0  0  0  0  0  0  0  0  0  0  0
   -0.7299   -5.1053   32.4500 C   0  0  0  0  0  0  0  0  0  0  0  0
    0.1139   -5.7679   31.3577 C   0  0  0  0  0  0  0  0  0  0  0  0
   -0.4729   -5.8110   30.0705 O   0  0  0  0  0  0  0  0  0  0  0  0
   -0.3729   -4.5510   29.4031 C   0  0  0  0  0  0  0  0  0  0  0  0
   -1.1269   -9.2172   31.0912 H   0  0  0  0  0  0  0  0  0  0  0  0
   -2.4413   -8.6703   32.1579 H   0  0  0  0  0  0  0  0  0  0  0  0
   -1.8912   -7.6019   30.8798 H   0  0  0  0  0  0  0  0  0  0  0  0
    0.7908   -7.7894   31.0667 H   0  0  0  0  0  0  0  0  0  0  0  0
    2.4437   -7.0178   32.5960 H   0  0  0  0  0  0  0  0  0  0  0  0
    1.3371   -7.7331   33.7897 H   0  0  0  0  0  0  0  0  0  0  0  0
    2.0879   -4.9516   33.0353 H   0  0  0  0  0  0  0  0  0  0  0  0
    2.0362   -5.7092   34.5633 H   0  0  0  0  0  0  0  0  0  0  0  0
   -1.2371   -6.7862   34.6515 H   0  0  0  0  0  0  0  0  0  0  0  0
   -0.2209   -7.4980   37.0046 H   0  0  0  0  0  0  0  0  0  0  0  0
    0.4242   -5.8982   39.1008 H   0  0  0  0  0  0  0  0  0  0  0  0
    1.6395   -6.6449   38.0579 H   0  0  0  0  0  0  0  0  0  0  0  0
    0.6698   -3.9415   38.0976 H   0  0  0  0  0  0  0  0  0  0  0  0
   -0.9247   -2.4315   33.3195 H   0  0  0  0  0  0  0  0  0  0  0  0
    0.3993   -1.6059   34.0650 H   0  0  0  0  0  0  0  0  0  0  0  0
    1.7559   -1.6318   32.3252 H   0  0  0  0  0  0  0  0  0  0  0  0
    1.5083   -3.3027   31.9375 H   0  0  0  0  0  0  0  0  0  0  0  0
    0.7752   -1.6211   30.2244 H   0  0  0  0  0  0  0  0  0  0  0  0
   -2.2915   -2.0252   28.5651 H   0  0  0  0  0  0  0  0  0  0  0  0
   -2.5146   -0.7671   26.4788 H   0  0  0  0  0  0  0  0  0  0  0  0
   -2.7608    1.5372   25.8354 H   0  0  0  0  0  0  0  0  0  0  0  0
   -0.6472    2.6620   28.2714 H   0  0  0  0  0  0  0  0  0  0  0  0
   -0.3247    1.3763   30.3656 H   0  0  0  0  0  0  0  0  0  0  0  0
   -1.0859   -4.1385   32.1208 H   0  0  0  0  0  0  0  0  0  0  0  0
   -1.6479   -5.6748   32.5726 H   0  0  0  0  0  0  0  0  0  0  0  0
    1.0647   -5.2471   31.2075 H   0  0  0  0  0  0  0  0  0  0  0  0
   -0.8330   -4.6107   28.4202 H   0  0  0  0  0  0  0  0  0  0  0  0
    0.6705   -4.2457   29.2848 H   0  0  0  0  0  0  0  0  0  0  0  0
   -0.9484   -3.8119   29.9413 H   0  0  0  0  0  0  0  0  0  0  0  0
  1  2  1  0
  2  3  1  0
  3  4  1  0
  4  5  1  0
  5  6  1  0
  6  7  1  0
  7  8  2  0
  8  9  1  0
  9 10  1  0
 10 11  1  0
 11 12  1  0
 12 13  1  0
 13 14  2  0
 14 15  1  0
 15 16  1  0
 16 17  1  0
 17 18  1  0
 18 19  2  0
 18 20  2  0
 18 21  1  0
 21 22  2  0
 22 23  1  0
 23 24  2  0
 24 25  1  0
 24 26  1  0
 26 27  2  0
  6 28  1  0
 28 29  1  0
 29 30  1  0
 30 31  1  0
 29  3  1  0
 14  6  1  0
 27 21  1  0
 12  8  1  0
  1 32  1  0
  1 33  1  0
  1 34  1  0
  3 35  1  0
  4 36  1  0
  4 37  1  0
  5 38  1  0
  5 39  1  0
  7 40  1  0
  9 41  1  0
 10 42  1  0
 10 43  1  0
 11 44  1  0
 15 45  1  0
 15 46  1  0
 16 47  1  0
 16 48  1  0
 17 49  1  0
 22 50  1  0
 23 51  1  0
 25 52  1  0
 26 53  1  0
 27 54  1  0
 28 55  1  0
 28 56  1  0
 29 57  1  0
 31 58  1  0
 31 59  1  0
 31 60  1  0
M  END
>  <Energy>  (851) 
24.787004748465584

>  <compound_id>  (851) 
2883

>  <target_id>  (851) 
1

>  <reference_id>  (851) 
183

>  <inspiration_ids>  (851) 
[188, 183]

>  <energy_score>  (851) 
-47.092511176383766

>  <distance_score>  (851) 
2.410277394850288

>  <path>  (851) 
/opt/xchem-fragalysis-2/maxwin/BulkDock/SCRATCH/505736/C2883-P183/C2883-P183.minimised.mol

>  <scratch_subdir>  (851) 
/opt/xchem-fragalysis-2/maxwin/BulkDock/SCRATCH/505736/C2883-P183

>  <fragmenstein_runtime>  (851) 
12.018552541732788

>  <fragmenstein_outcome>  (851) 
too moved

>  <fragmenstein_mode>  (851) 
expansion

>  <fragmenstein_error>  (851) 


$$$$
C2888-P188
     RDKit          3D

 52 56  0  0  0  0  0  0  0  0999 V2000
   -2.1552   -3.1227   31.4999 O   0  0  0  0  0  0  0  0  0  0  0  0
   -1.0751   -2.2376   31.8961 S   0  0  0  0  0  0  0  0  0  0  0  0
   -1.1431   -1.5030   33.1381 O   0  0  0  0  0  0  0  0  0  0  0  0
    0.2831   -3.2106   32.0255 N   0  0  0  0  0  0  0  0  0  0  0  0
    0.5574   -3.9388   30.7646 C   0  0  0  0  0  0  0  0  0  0  0  0
    1.5964   -5.0062   31.0788 C   0  0  0  0  0  0  0  0  0  0  0  0
    0.8121   -5.9838   31.9048 C   0  0  0  0  0  0  0  0  0  0  0  0
    0.6225   -5.7788   33.1839 N   0  0  0  0  0  0  0  0  0  0  0  0
   -0.3144   -6.5742   33.8248 C   0  0  0  0  0  0  0  0  0  0  0  0
   -1.0382   -7.5210   33.2041 C   0  0  0  0  0  0  0  0  0  0  0  0
   -0.7978   -7.7693   31.8682 N   0  0  0  0  0  0  0  0  0  0  0  0
   -1.2722   -8.6904   31.0055 N   0  0  0  0  0  0  0  0  0  0  0  0
   -0.4621   -8.5200   29.9520 C   0  0  0  0  0  0  0  0  0  0  0  0
    0.3423   -7.4362   29.9846 N   0  0  0  0  0  0  0  0  0  0  0  0
    0.1404   -7.0259   31.2091 C   0  0  0  0  0  0  0  0  0  0  0  0
    1.0089   -2.9659   29.6864 C   0  0  0  0  0  0  0  0  0  0  0  0
    0.2740   -1.6380   29.6574 C   0  0  0  0  0  0  0  0  0  0  0  0
   -0.6113   -1.1988   30.5848 C   0  0  0  0  0  0  0  0  0  0  0  0
   -1.0428    0.2279   30.6726 C   0  0  0  0  0  0  0  0  0  0  0  0
   -0.0640    1.1258   29.9188 C   0  0  0  0  0  0  0  0  0  0  0  0
    0.1469    0.6650   28.4701 C   0  0  0  0  0  0  0  0  0  0  0  0
    1.1617    1.6229   27.7918 C   0  0  0  0  0  0  0  0  0  0  0  0
    0.5999    3.0105   27.4784 C   0  0  0  0  0  0  0  0  0  0  0  0
   -0.7174    2.9499   26.7155 C   0  0  0  0  0  0  0  0  0  0  0  0
   -1.7323    2.0435   27.4013 C   0  0  0  0  0  0  0  0  0  0  0  0
   -1.1728    0.6509   27.6642 C   0  0  0  0  0  0  0  0  0  0  0  0
    0.7524   -0.7533   28.5334 C   0  0  0  0  0  0  0  0  0  0  0  0
    0.1961   -3.7986   32.8651 H   0  0  0  0  0  0  0  0  0  0  0  0
   -0.3638   -4.4256   30.4166 H   0  0  0  0  0  0  0  0  0  0  0  0
    2.4347   -4.6133   31.6645 H   0  0  0  0  0  0  0  0  0  0  0  0
    1.9888   -5.4717   30.1700 H   0  0  0  0  0  0  0  0  0  0  0  0
   -0.4720   -6.3753   34.8842 H   0  0  0  0  0  0  0  0  0  0  0  0
   -1.7763   -8.1338   33.7002 H   0  0  0  0  0  0  0  0  0  0  0  0
   -0.4792   -9.2019   29.1136 H   0  0  0  0  0  0  0  0  0  0  0  0
    0.9160   -3.4574   28.7098 H   0  0  0  0  0  0  0  0  0  0  0  0
    2.0763   -2.7471   29.8272 H   0  0  0  0  0  0  0  0  0  0  0  0
   -2.0632    0.3269   30.2933 H   0  0  0  0  0  0  0  0  0  0  0  0
   -1.0602    0.5677   31.7138 H   0  0  0  0  0  0  0  0  0  0  0  0
   -0.3851    2.1634   29.9432 H   0  0  0  0  0  0  0  0  0  0  0  0
    0.8990    1.1207   30.4514 H   0  0  0  0  0  0  0  0  0  0  0  0
    1.5265    1.1721   26.8664 H   0  0  0  0  0  0  0  0  0  0  0  0
    2.0503    1.7423   28.4256 H   0  0  0  0  0  0  0  0  0  0  0  0
    1.3344    3.5750   26.8921 H   0  0  0  0  0  0  0  0  0  0  0  0
    0.4552    3.5721   28.4086 H   0  0  0  0  0  0  0  0  0  0  0  0
   -1.1329    3.9598   26.6214 H   0  0  0  0  0  0  0  0  0  0  0  0
   -0.5324    2.5943   25.6970 H   0  0  0  0  0  0  0  0  0  0  0  0
   -2.0249    2.5035   28.3470 H   0  0  0  0  0  0  0  0  0  0  0  0
   -2.6351    1.9690   26.7845 H   0  0  0  0  0  0  0  0  0  0  0  0
   -1.9256    0.0247   28.1453 H   0  0  0  0  0  0  0  0  0  0  0  0
   -0.9995    0.1796   26.6983 H   0  0  0  0  0  0  0  0  0  0  0  0
    1.8430   -0.6648   28.6384 H   0  0  0  0  0  0  0  0  0  0  0  0
    0.5798   -1.2694   27.5885 H   0  0  0  0  0  0  0  0  0  0  0  0
  1  2  2  0
  2  3  2  0
  2  4  1  0
  4  5  1  0
  5  6  1  0
  6  7  1  0
  7  8  2  0
  8  9  1  0
  9 10  2  0
 10 11  1  0
 11 12  1  0
 12 13  2  0
 13 14  1  0
 14 15  2  0
  5 16  1  0
 16 17  1  0
 17 18  2  0
 18 19  1  0
 19 20  1  0
 20 21  1  0
 21 22  1  0
 22 23  1  0
 23 24  1  0
 24 25  1  0
 25 26  1  0
 21 27  1  0
 18  2  1  0
 26 21  1  0
 15  7  1  0
 27 17  1  0
 15 11  1  0
  4 28  1  0
  5 29  1  0
  6 30  1  0
  6 31  1  0
  9 32  1  0
 10 33  1  0
 13 34  1  0
 16 35  1  0
 16 36  1  0
 19 37  1  0
 19 38  1  0
 20 39  1  0
 20 40  1  0
 22 41  1  0
 22 42  1  0
 23 43  1  0
 23 44  1  0
 24 45  1  0
 24 46  1  0
 25 47  1  0
 25 48  1  0
 26 49  1  0
 26 50  1  0
 27 51  1  0
 27 52  1  0
M  END
>  <Energy>  (852) 
-9.8014646456881529

>  <compound_id>  (852) 
2888

>  <target_id>  (852) 
1

>  <reference_id>  (852) 
188

>  <inspiration_ids>  (852) 
[188, 190]

>  <energy_score>  (852) 
-71.57045139179229

>  <distance_score>  (852) 
1.117544399907554

>  <path>  (852) 
/opt/xchem-fragalysis-2/maxwin/BulkDock/SCRATCH/505736/C2888-P188/C2888-P188.minimised.mol

>  <scratch_subdir>  (852) 
/opt/xchem-fragalysis-2/maxwin/BulkDock/SCRATCH/505736/C2888-P188

>  <fragmenstein_runtime>  (852) 
34.013585329055786

>  <fragmenstein_outcome>  (852) 
too moved

>  <fragmenstein_mode>  (852) 
expansion

>  <fragmenstein_error>  (852) 


$$$$
C2888-P190
     RDKit          3D

 52 56  0  0  0  0  0  0  0  0999 V2000
   -2.2456   -3.1850   31.4497 O   0  0  0  0  0  0  0  0  0  0  0  0
   -1.1510   -2.3523   31.9080 S   0  0  0  0  0  0  0  0  0  0  0  0
   -1.2067   -1.6578   33.1737 O   0  0  0  0  0  0  0  0  0  0  0  0
    0.1801   -3.3440   32.0154 N   0  0  0  0  0  0  0  0  0  0  0  0
    0.5598   -3.9915   30.7530 C   0  0  0  0  0  0  0  0  0  0  0  0
    1.6186   -5.0365   31.0907 C   0  0  0  0  0  0  0  0  0  0  0  0
    0.8799   -6.0465   31.9258 C   0  0  0  0  0  0  0  0  0  0  0  0
    0.7876   -5.9272   33.2250 N   0  0  0  0  0  0  0  0  0  0  0  0
   -0.1341   -6.7347   33.8740 C   0  0  0  0  0  0  0  0  0  0  0  0
   -0.8914   -7.6568   33.2544 C   0  0  0  0  0  0  0  0  0  0  0  0
   -0.7084   -7.8563   31.9011 N   0  0  0  0  0  0  0  0  0  0  0  0
   -1.1950   -8.7691   31.0326 N   0  0  0  0  0  0  0  0  0  0  0  0
   -0.3998   -8.5802   29.9716 C   0  0  0  0  0  0  0  0  0  0  0  0
    0.3688   -7.4704   29.9928 N   0  0  0  0  0  0  0  0  0  0  0  0
    0.1860   -7.0739   31.2255 C   0  0  0  0  0  0  0  0  0  0  0  0
    1.0368   -2.9538   29.7470 C   0  0  0  0  0  0  0  0  0  0  0  0
    0.2752   -1.6388   29.7484 C   0  0  0  0  0  0  0  0  0  0  0  0
   -0.6531   -1.2527   30.6579 C   0  0  0  0  0  0  0  0  0  0  0  0
   -1.1293    0.1610   30.7833 C   0  0  0  0  0  0  0  0  0  0  0  0
   -0.1714    1.1043   30.0615 C   0  0  0  0  0  0  0  0  0  0  0  0
    0.0740    0.6803   28.6077 C   0  0  0  0  0  0  0  0  0  0  0  0
    1.0352    1.7040   27.9489 C   0  0  0  0  0  0  0  0  0  0  0  0
    0.3932    3.0607   27.6558 C   0  0  0  0  0  0  0  0  0  0  0  0
   -0.9028    2.9306   26.8667 C   0  0  0  0  0  0  0  0  0  0  0  0
   -1.8742    1.9512   27.5137 C   0  0  0  0  0  0  0  0  0  0  0  0
   -1.2343    0.5944   27.7855 C   0  0  0  0  0  0  0  0  0  0  0  0
    0.7627   -0.6997   28.6711 C   0  0  0  0  0  0  0  0  0  0  0  0
    0.9180   -2.9430   32.5937 H   0  0  0  0  0  0  0  0  0  0  0  0
   -0.3234   -4.4910   30.3326 H   0  0  0  0  0  0  0  0  0  0  0  0
    2.4442   -4.6135   31.6742 H   0  0  0  0  0  0  0  0  0  0  0  0
    2.0327   -5.4955   30.1877 H   0  0  0  0  0  0  0  0  0  0  0  0
   -0.2513   -6.5600   34.9420 H   0  0  0  0  0  0  0  0  0  0  0  0
   -1.6153   -8.2818   33.7572 H   0  0  0  0  0  0  0  0  0  0  0  0
   -0.4111   -9.2605   29.1320 H   0  0  0  0  0  0  0  0  0  0  0  0
    1.0003   -3.3984   28.7447 H   0  0  0  0  0  0  0  0  0  0  0  0
    2.0913   -2.7191   29.9468 H   0  0  0  0  0  0  0  0  0  0  0  0
   -2.1516    0.2489   30.4038 H   0  0  0  0  0  0  0  0  0  0  0  0
   -1.1616    0.4715   31.8336 H   0  0  0  0  0  0  0  0  0  0  0  0
   -0.5234    2.1279   30.1068 H   0  0  0  0  0  0  0  0  0  0  0  0
    0.7845    1.1200   30.6070 H   0  0  0  0  0  0  0  0  0  0  0  0
    1.4247    1.2921   27.0152 H   0  0  0  0  0  0  0  0  0  0  0  0
    1.9138    1.8638   28.5877 H   0  0  0  0  0  0  0  0  0  0  0  0
    1.1002    3.6818   27.0935 H   0  0  0  0  0  0  0  0  0  0  0  0
    0.1973    3.5936   28.5933 H   0  0  0  0  0  0  0  0  0  0  0  0
   -1.3789    3.9140   26.7778 H   0  0  0  0  0  0  0  0  0  0  0  0
   -0.6743    2.6029   25.8471 H   0  0  0  0  0  0  0  0  0  0  0  0
   -2.2385    2.3758   28.4512 H   0  0  0  0  0  0  0  0  0  0  0  0
   -2.7468    1.8232   26.8629 H   0  0  0  0  0  0  0  0  0  0  0  0
   -1.9584   -0.0783   28.2509 H   0  0  0  0  0  0  0  0  0  0  0  0
   -1.0192    0.1375   26.8217 H   0  0  0  0  0  0  0  0  0  0  0  0
    1.8389   -0.5512   28.8388 H   0  0  0  0  0  0  0  0  0  0  0  0
    0.6723   -1.1966   27.7060 H   0  0  0  0  0  0  0  0  0  0  0  0
  1  2  2  0
  2  3  2  0
  2  4  1  0
  4  5  1  0
  5  6  1  0
  6  7  1  0
  7  8  2  0
  8  9  1  0
  9 10  2  0
 10 11  1  0
 11 12  1  0
 12 13  2  0
 13 14  1  0
 14 15  2  0
  5 16  1  0
 16 17  1  0
 17 18  2  0
 18 19  1  0
 19 20  1  0
 20 21  1  0
 21 22  1  0
 22 23  1  0
 23 24  1  0
 24 25  1  0
 25 26  1  0
 21 27  1  0
 18  2  1  0
 26 21  1  0
 15  7  1  0
 27 17  1  0
 15 11  1  0
  4 28  1  0
  5 29  1  0
  6 30  1  0
  6 31  1  0
  9 32  1  0
 10 33  1  0
 13 34  1  0
 16 35  1  0
 16 36  1  0
 19 37  1  0
 19 38  1  0
 20 39  1  0
 20 40  1  0
 22 41  1  0
 22 42  1  0
 23 43  1  0
 23 44  1  0
 24 45  1  0
 24 46  1  0
 25 47  1  0
 25 48  1  0
 26 49  1  0
 26 50  1  0
 27 51  1  0
 27 52  1  0
M  END
>  <Energy>  (853) 
-6.637479276271141

>  <compound_id>  (853) 
2888

>  <target_id>  (853) 
1

>  <reference_id>  (853) 
190

>  <inspiration_ids>  (853) 
[188, 190]

>  <energy_score>  (853) 
-68.40646602237666

>  <distance_score>  (853) 
1.1126618657246994

>  <path>  (853) 
/opt/xchem-fragalysis-2/maxwin/BulkDock/SCRATCH/505736/C2888-P190/C2888-P190.minimised.mol

>  <scratch_subdir>  (853) 
/opt/xchem-fragalysis-2/maxwin/BulkDock/SCRATCH/505736/C2888-P190

>  <fragmenstein_runtime>  (853) 
33.639750480651855

>  <fragmenstein_outcome>  (853) 
too moved

>  <fragmenstein_mode>  (853) 
expansion

>  <fragmenstein_error>  (853) 


$$$$
C2913-P188
     RDKit          3D

 53 57  0  0  0  0  0  0  0  0999 V2000
   -2.2985   -2.7752   31.3978 O   0  0  0  0  0  0  0  0  0  0  0  0
   -1.0827   -1.9893   31.3825 S   0  0  0  0  0  0  0  0  0  0  0  0
   -0.6955   -1.1689   32.5094 O   0  0  0  0  0  0  0  0  0  0  0  0
    0.2274   -2.9945   31.0331 N   0  0  0  0  0  0  0  0  0  0  0  0
   -0.0370   -4.1885   30.2037 C   0  0  0  0  0  0  0  0  0  0  0  0
    0.9930   -5.2915   30.4753 C   0  0  0  0  0  0  0  0  0  0  0  0
    1.2525   -5.5129   31.9442 C   0  0  0  0  0  0  0  0  0  0  0  0
    2.3208   -4.9147   32.5106 C   0  0  0  0  0  0  0  0  0  0  0  0
    2.5588   -5.0069   33.9317 C   0  0  0  0  0  0  0  0  0  0  0  0
    1.7340   -5.6960   34.7396 C   0  0  0  0  0  0  0  0  0  0  0  0
    1.9650   -5.6810   36.4592 S   0  0  0  0  0  0  0  0  0  0  0  0
    3.1103   -6.9817   36.6028 C   0  0  0  0  0  0  0  0  0  0  0  0
    3.2179   -7.7243   37.6859 N   0  0  0  0  0  0  0  0  0  0  0  0
    4.2458   -8.6113   37.4632 N   0  0  0  0  0  0  0  0  0  0  0  0
    4.7215   -8.3455   36.2634 C   0  0  0  0  0  0  0  0  0  0  0  0
    5.7922   -9.0777   35.6748 C   0  0  0  0  0  0  0  0  0  0  0  0
    6.5572   -8.8247   34.5552 C   0  0  0  0  0  0  0  0  0  0  0  0
    7.4699   -9.8992   34.4063 C   0  0  0  0  0  0  0  0  0  0  0  0
    7.2506  -10.7707   35.4495 C   0  0  0  0  0  0  0  0  0  0  0  0
    6.2440  -10.2547   36.2238 N   0  0  0  0  0  0  0  0  0  0  0  0
    4.0424   -7.3217   35.6512 O   0  0  0  0  0  0  0  0  0  0  0  0
    0.5990   -6.3570   34.1690 C   0  0  0  0  0  0  0  0  0  0  0  0
   -0.4195   -7.1037   34.7134 C   0  0  0  0  0  0  0  0  0  0  0  0
   -1.2403   -7.5271   33.6592 C   0  0  0  0  0  0  0  0  0  0  0  0
   -0.7311   -7.0411   32.4776 C   0  0  0  0  0  0  0  0  0  0  0  0
   -1.1924   -7.2585   31.2478 O   0  0  0  0  0  0  0  0  0  0  0  0
    0.3925   -6.2699   32.7737 N   0  0  0  0  0  0  0  0  0  0  0  0
   -1.1056   -0.9260   29.9614 C   0  0  0  0  0  0  0  0  0  0  0  0
   -1.5601   -1.4172   28.7439 C   0  0  0  0  0  0  0  0  0  0  0  0
   -1.6940   -0.5443   27.6680 C   0  0  0  0  0  0  0  0  0  0  0  0
   -1.3887    0.7993   27.8037 C   0  0  0  0  0  0  0  0  0  0  0  0
   -1.6734    1.6354   26.7676 O   0  0  0  0  0  0  0  0  0  0  0  0
   -0.8599    1.2791   28.9901 C   0  0  0  0  0  0  0  0  0  0  0  0
   -0.7234    0.4151   30.0817 C   0  0  0  0  0  0  0  0  0  0  0  0
    1.0560   -2.4602   30.7766 H   0  0  0  0  0  0  0  0  0  0  0  0
   -1.0183   -4.5898   30.4459 H   0  0  0  0  0  0  0  0  0  0  0  0
   -0.0140   -3.9187   29.1443 H   0  0  0  0  0  0  0  0  0  0  0  0
    0.6981   -6.2245   29.9856 H   0  0  0  0  0  0  0  0  0  0  0  0
    1.9317   -5.0023   29.9817 H   0  0  0  0  0  0  0  0  0  0  0  0
    3.0033   -4.2931   31.9392 H   0  0  0  0  0  0  0  0  0  0  0  0
    3.4052   -4.4504   34.3251 H   0  0  0  0  0  0  0  0  0  0  0  0
    6.4785   -7.9596   33.9111 H   0  0  0  0  0  0  0  0  0  0  0  0
    8.2090  -10.0167   33.6226 H   0  0  0  0  0  0  0  0  0  0  0  0
    7.7265  -11.7061   35.7101 H   0  0  0  0  0  0  0  0  0  0  0  0
    5.8702  -10.6693   37.0697 H   0  0  0  0  0  0  0  0  0  0  0  0
   -0.5453   -7.3583   35.7597 H   0  0  0  0  0  0  0  0  0  0  0  0
   -2.0980   -8.1752   33.7588 H   0  0  0  0  0  0  0  0  0  0  0  0
   -2.0371   -7.7260   31.3892 H   0  0  0  0  0  0  0  0  0  0  0  0
   -1.8741   -2.4490   28.6261 H   0  0  0  0  0  0  0  0  0  0  0  0
   -2.1205   -0.8994   26.7379 H   0  0  0  0  0  0  0  0  0  0  0  0
   -2.0461    2.4539   27.1497 H   0  0  0  0  0  0  0  0  0  0  0  0
   -0.5793    2.3248   29.0775 H   0  0  0  0  0  0  0  0  0  0  0  0
   -0.3455    0.8045   31.0240 H   0  0  0  0  0  0  0  0  0  0  0  0
  1  2  2  0
  2  3  2  0
  2  4  1  0
  4  5  1  0
  5  6  1  0
  6  7  1  0
  7  8  2  0
  8  9  1  0
  9 10  2  0
 10 11  1  0
 11 12  1  0
 12 13  2  0
 13 14  1  0
 14 15  2  0
 15 16  1  0
 16 17  2  0
 17 18  1  0
 18 19  2  0
 19 20  1  0
 15 21  1  0
 10 22  1  0
 22 23  2  0
 23 24  1  0
 24 25  2  0
 25 26  1  0
 25 27  1  0
  2 28  1  0
 28 29  2  0
 29 30  1  0
 30 31  2  0
 31 32  1  0
 31 33  1  0
 33 34  2  0
 27  7  1  0
 34 28  1  0
 21 12  1  0
 27 22  1  0
 20 16  1  0
  4 35  1  0
  5 36  1  0
  5 37  1  0
  6 38  1  0
  6 39  1  0
  8 40  1  0
  9 41  1  0
 17 42  1  0
 18 43  1  0
 19 44  1  0
 20 45  1  0
 23 46  1  0
 24 47  1  0
 26 48  1  0
 29 49  1  0
 30 50  1  0
 32 51  1  0
 33 52  1  0
 34 53  1  0
M  END
>  <Energy>  (854) 
3.8433471821746634

>  <compound_id>  (854) 
2913

>  <target_id>  (854) 
1

>  <reference_id>  (854) 
188

>  <inspiration_ids>  (854) 
[188, 194]

>  <energy_score>  (854) 
-60.018515718435566

>  <distance_score>  (854) 
1.1767759696669302

>  <path>  (854) 
/opt/xchem-fragalysis-2/maxwin/BulkDock/SCRATCH/505736/C2913-P188/C2913-P188.minimised.mol

>  <scratch_subdir>  (854) 
/opt/xchem-fragalysis-2/maxwin/BulkDock/SCRATCH/505736/C2913-P188

>  <fragmenstein_runtime>  (854) 
4.5500147342681885

>  <fragmenstein_outcome>  (854) 
too moved

>  <fragmenstein_mode>  (854) 
expansion

>  <fragmenstein_error>  (854) 


$$$$
C2913-P194
     RDKit          3D

 53 57  0  0  0  0  0  0  0  0999 V2000
   -2.2264   -3.0921   31.0997 O   0  0  0  0  0  0  0  0  0  0  0  0
   -1.2040   -2.0762   31.2313 S   0  0  0  0  0  0  0  0  0  0  0  0
   -1.0871   -1.2859   32.4384 O   0  0  0  0  0  0  0  0  0  0  0  0
    0.2889   -2.7795   30.9997 N   0  0  0  0  0  0  0  0  0  0  0  0
    0.5269   -3.8174   29.9907 C   0  0  0  0  0  0  0  0  0  0  0  0
    0.3021   -5.2346   30.5476 C   0  0  0  0  0  0  0  0  0  0  0  0
    0.9353   -5.5483   31.8813 C   0  0  0  0  0  0  0  0  0  0  0  0
    2.0963   -4.9802   32.2675 C   0  0  0  0  0  0  0  0  0  0  0  0
    2.5869   -5.1426   33.6173 C   0  0  0  0  0  0  0  0  0  0  0  0
    1.8814   -5.8129   34.5463 C   0  0  0  0  0  0  0  0  0  0  0  0
    2.4876   -5.9829   36.1661 S   0  0  0  0  0  0  0  0  0  0  0  0
    3.5253   -7.3469   35.8649 C   0  0  0  0  0  0  0  0  0  0  0  0
    3.3131   -8.2697   34.9454 N   0  0  0  0  0  0  0  0  0  0  0  0
    4.3863   -9.1286   34.9950 N   0  0  0  0  0  0  0  0  0  0  0  0
    5.1807   -8.6921   35.9544 C   0  0  0  0  0  0  0  0  0  0  0  0
    6.4068   -9.3243   36.3043 C   0  0  0  0  0  0  0  0  0  0  0  0
    7.3483   -8.9902   37.2567 C   0  0  0  0  0  0  0  0  0  0  0  0
    8.3855   -9.9538   37.1880 C   0  0  0  0  0  0  0  0  0  0  0  0
    8.0491  -10.8498   36.1979 C   0  0  0  0  0  0  0  0  0  0  0  0
    6.8455  -10.4618   35.6691 N   0  0  0  0  0  0  0  0  0  0  0  0
    4.6903   -7.5600   36.5525 O   0  0  0  0  0  0  0  0  0  0  0  0
    0.6367   -6.4097   34.1737 C   0  0  0  0  0  0  0  0  0  0  0  0
   -0.3457   -7.0638   34.8794 C   0  0  0  0  0  0  0  0  0  0  0  0
   -1.2859   -7.5325   33.9496 C   0  0  0  0  0  0  0  0  0  0  0  0
   -0.8744   -7.1719   32.6859 C   0  0  0  0  0  0  0  0  0  0  0  0
   -1.3961   -7.5352   31.5127 O   0  0  0  0  0  0  0  0  0  0  0  0
    0.2409   -6.3441   32.8243 N   0  0  0  0  0  0  0  0  0  0  0  0
   -1.2942   -0.9510   29.8676 C   0  0  0  0  0  0  0  0  0  0  0  0
   -1.7587   -1.4056   28.6384 C   0  0  0  0  0  0  0  0  0  0  0  0
   -1.8849   -0.5106   27.5795 C   0  0  0  0  0  0  0  0  0  0  0  0
   -1.5855    0.8305   27.7555 C   0  0  0  0  0  0  0  0  0  0  0  0
   -1.8263    1.6819   26.7199 O   0  0  0  0  0  0  0  0  0  0  0  0
   -1.0884    1.2867   28.9682 C   0  0  0  0  0  0  0  0  0  0  0  0
   -0.9433    0.3927   30.0350 C   0  0  0  0  0  0  0  0  0  0  0  0
    0.9159   -2.6779   31.7948 H   0  0  0  0  0  0  0  0  0  0  0  0
   -0.1066   -3.6667   29.1126 H   0  0  0  0  0  0  0  0  0  0  0  0
    1.5595   -3.7128   29.6383 H   0  0  0  0  0  0  0  0  0  0  0  0
   -0.7788   -5.3359   30.6497 H   0  0  0  0  0  0  0  0  0  0  0  0
    0.6270   -5.9791   29.8134 H   0  0  0  0  0  0  0  0  0  0  0  0
    2.6868   -4.3472   31.6127 H   0  0  0  0  0  0  0  0  0  0  0  0
    3.5389   -4.6746   33.8540 H   0  0  0  0  0  0  0  0  0  0  0  0
    7.2965   -8.1450   37.9320 H   0  0  0  0  0  0  0  0  0  0  0  0
    9.2791   -9.9912   37.7984 H   0  0  0  0  0  0  0  0  0  0  0  0
    8.5579  -11.7310   35.8293 H   0  0  0  0  0  0  0  0  0  0  0  0
    6.3450  -10.9349   34.9255 H   0  0  0  0  0  0  0  0  0  0  0  0
   -0.3562   -7.2389   35.9482 H   0  0  0  0  0  0  0  0  0  0  0  0
   -2.1411   -8.1476   34.1844 H   0  0  0  0  0  0  0  0  0  0  0  0
   -2.1695   -8.0869   31.7390 H   0  0  0  0  0  0  0  0  0  0  0  0
   -2.0470   -2.4402   28.4931 H   0  0  0  0  0  0  0  0  0  0  0  0
   -2.2698   -0.8537   26.6248 H   0  0  0  0  0  0  0  0  0  0  0  0
   -2.0679    2.5479   27.0981 H   0  0  0  0  0  0  0  0  0  0  0  0
   -0.8212    2.3320   29.0933 H   0  0  0  0  0  0  0  0  0  0  0  0
   -0.5676    0.7530   30.9894 H   0  0  0  0  0  0  0  0  0  0  0  0
  1  2  2  0
  2  3  2  0
  2  4  1  0
  4  5  1  0
  5  6  1  0
  6  7  1  0
  7  8  2  0
  8  9  1  0
  9 10  2  0
 10 11  1  0
 11 12  1  0
 12 13  2  0
 13 14  1  0
 14 15  2  0
 15 16  1  0
 16 17  2  0
 17 18  1  0
 18 19  2  0
 19 20  1  0
 15 21  1  0
 10 22  1  0
 22 23  2  0
 23 24  1  0
 24 25  2  0
 25 26  1  0
 25 27  1  0
  2 28  1  0
 28 29  2  0
 29 30  1  0
 30 31  2  0
 31 32  1  0
 31 33  1  0
 33 34  2  0
 27  7  1  0
 34 28  1  0
 21 12  1  0
 27 22  1  0
 20 16  1  0
  4 35  1  0
  5 36  1  0
  5 37  1  0
  6 38  1  0
  6 39  1  0
  8 40  1  0
  9 41  1  0
 17 42  1  0
 18 43  1  0
 19 44  1  0
 20 45  1  0
 23 46  1  0
 24 47  1  0
 26 48  1  0
 29 49  1  0
 30 50  1  0
 32 51  1  0
 33 52  1  0
 34 53  1  0
M  END
>  <Energy>  (855) 
3.6054716800035118

>  <compound_id>  (855) 
2913

>  <target_id>  (855) 
1

>  <reference_id>  (855) 
194

>  <inspiration_ids>  (855) 
[188, 194]

>  <energy_score>  (855) 
-60.25639122060618

>  <distance_score>  (855) 
1.118504984878669

>  <path>  (855) 
/opt/xchem-fragalysis-2/maxwin/BulkDock/SCRATCH/505736/C2913-P194/C2913-P194.minimised.mol

>  <scratch_subdir>  (855) 
/opt/xchem-fragalysis-2/maxwin/BulkDock/SCRATCH/505736/C2913-P194

>  <fragmenstein_runtime>  (855) 
5.861835241317749

>  <fragmenstein_outcome>  (855) 
too moved

>  <fragmenstein_mode>  (855) 
expansion

>  <fragmenstein_error>  (855) 


$$$$
C2914-P188
     RDKit          3D

 49 53  0  0  0  0  0  0  0  0999 V2000
   -2.1468   -2.9984   31.2419 O   0  0  0  0  0  0  0  0  0  0  0  0
   -1.1440   -1.9648   31.3999 S   0  0  0  0  0  0  0  0  0  0  0  0
   -1.1275   -1.1052   32.5638 O   0  0  0  0  0  0  0  0  0  0  0  0
    0.3545   -2.6766   31.3066 N   0  0  0  0  0  0  0  0  0  0  0  0
    0.7021   -3.5852   30.2182 C   0  0  0  0  0  0  0  0  0  0  0  0
    1.5909   -4.6914   30.7650 C   0  0  0  0  0  0  0  0  0  0  0  0
    0.7831   -5.5975   31.6585 C   0  0  0  0  0  0  0  0  0  0  0  0
    0.6897   -5.3637   32.9383 N   0  0  0  0  0  0  0  0  0  0  0  0
   -0.0796   -6.2242   33.7197 C   0  0  0  0  0  0  0  0  0  0  0  0
   -0.0363   -6.1027   35.4625 S   0  0  0  0  0  0  0  0  0  0  0  0
    1.5015   -6.8979   35.6889 C   0  0  0  0  0  0  0  0  0  0  0  0
    2.1614   -7.5907   34.7741 N   0  0  0  0  0  0  0  0  0  0  0  0
    3.3162   -8.0456   35.3697 N   0  0  0  0  0  0  0  0  0  0  0  0
    3.2906   -7.6077   36.6171 C   0  0  0  0  0  0  0  0  0  0  0  0
    4.3098   -7.8816   37.5738 C   0  0  0  0  0  0  0  0  0  0  0  0
    4.3842   -7.5566   38.9136 C   0  0  0  0  0  0  0  0  0  0  0  0
    5.6079   -8.0694   39.4113 C   0  0  0  0  0  0  0  0  0  0  0  0
    6.2477   -8.6927   38.3635 C   0  0  0  0  0  0  0  0  0  0  0  0
    5.4530   -8.5725   37.2530 N   0  0  0  0  0  0  0  0  0  0  0  0
    2.1660   -6.8739   36.8862 O   0  0  0  0  0  0  0  0  0  0  0  0
   -0.8186   -7.2215   33.1899 C   0  0  0  0  0  0  0  0  0  0  0  0
   -0.7112   -7.4791   31.8414 N   0  0  0  0  0  0  0  0  0  0  0  0
   -1.1949   -8.4817   31.0756 N   0  0  0  0  0  0  0  0  0  0  0  0
   -0.4362   -8.3672   29.9801 C   0  0  0  0  0  0  0  0  0  0  0  0
    0.3140   -7.2416   29.8878 N   0  0  0  0  0  0  0  0  0  0  0  0
    0.1212   -6.7142   31.0694 C   0  0  0  0  0  0  0  0  0  0  0  0
   -1.1343   -0.9202   29.9693 C   0  0  0  0  0  0  0  0  0  0  0  0
   -1.5617   -1.4219   28.7464 C   0  0  0  0  0  0  0  0  0  0  0  0
   -1.6933   -0.5522   27.6676 C   0  0  0  0  0  0  0  0  0  0  0  0
   -1.4007    0.7948   27.8017 C   0  0  0  0  0  0  0  0  0  0  0  0
   -1.6822    1.6245   26.7591 O   0  0  0  0  0  0  0  0  0  0  0  0
   -0.8888    1.2820   28.9925 C   0  0  0  0  0  0  0  0  0  0  0  0
   -0.7655    0.4242   30.0904 C   0  0  0  0  0  0  0  0  0  0  0  0
    1.0729   -2.2820   31.9113 H   0  0  0  0  0  0  0  0  0  0  0  0
    1.2516   -3.0204   29.4578 H   0  0  0  0  0  0  0  0  0  0  0  0
   -0.1913   -4.0098   29.7499 H   0  0  0  0  0  0  0  0  0  0  0  0
    2.0211   -5.2681   29.9391 H   0  0  0  0  0  0  0  0  0  0  0  0
    2.4244   -4.2757   31.3437 H   0  0  0  0  0  0  0  0  0  0  0  0
    3.6357   -7.0106   39.4751 H   0  0  0  0  0  0  0  0  0  0  0  0
    5.9808   -7.9903   40.4249 H   0  0  0  0  0  0  0  0  0  0  0  0
    7.1983   -9.2073   38.3120 H   0  0  0  0  0  0  0  0  0  0  0  0
    5.6693   -8.9312   36.3313 H   0  0  0  0  0  0  0  0  0  0  0  0
   -1.4196   -7.9176   33.7610 H   0  0  0  0  0  0  0  0  0  0  0  0
   -0.4487   -9.1240   29.2070 H   0  0  0  0  0  0  0  0  0  0  0  0
   -1.8512   -2.4613   28.6259 H   0  0  0  0  0  0  0  0  0  0  0  0
   -2.1065   -0.9142   26.7345 H   0  0  0  0  0  0  0  0  0  0  0  0
   -1.9837    2.4745   27.1333 H   0  0  0  0  0  0  0  0  0  0  0  0
   -0.6139    2.3291   29.0793 H   0  0  0  0  0  0  0  0  0  0  0  0
   -0.4054    0.8170   31.0379 H   0  0  0  0  0  0  0  0  0  0  0  0
  1  2  2  0
  2  3  2  0
  2  4  1  0
  4  5  1  0
  5  6  1  0
  6  7  1  0
  7  8  2  0
  8  9  1  0
  9 10  1  0
 10 11  1  0
 11 12  2  0
 12 13  1  0
 13 14  2  0
 14 15  1  0
 15 16  2  0
 16 17  1  0
 17 18  2  0
 18 19  1  0
 14 20  1  0
  9 21  2  0
 21 22  1  0
 22 23  1  0
 23 24  2  0
 24 25  1  0
 25 26  2  0
  2 27  1  0
 27 28  2  0
 28 29  1  0
 29 30  2  0
 30 31  1  0
 30 32  1  0
 32 33  2  0
 26  7  1  0
 33 27  1  0
 20 11  1  0
 26 22  1  0
 19 15  1  0
  4 34  1  0
  5 35  1  0
  5 36  1  0
  6 37  1  0
  6 38  1  0
 16 39  1  0
 17 40  1  0
 18 41  1  0
 19 42  1  0
 21 43  1  0
 24 44  1  0
 28 45  1  0
 29 46  1  0
 31 47  1  0
 32 48  1  0
 33 49  1  0
M  END
>  <Energy>  (856) 
-46.390418050966851

>  <compound_id>  (856) 
2914

>  <target_id>  (856) 
1

>  <reference_id>  (856) 
188

>  <inspiration_ids>  (856) 
[188, 195]

>  <energy_score>  (856) 
-57.10918561905911

>  <distance_score>  (856) 
0.5173086554042691

>  <path>  (856) 
/opt/xchem-fragalysis-2/maxwin/BulkDock/SCRATCH/505736/C2914-P188/C2914-P188.minimised.mol

>  <scratch_subdir>  (856) 
/opt/xchem-fragalysis-2/maxwin/BulkDock/SCRATCH/505736/C2914-P188

>  <fragmenstein_runtime>  (856) 
7.447422742843628

>  <fragmenstein_outcome>  (856) 
acceptable

>  <fragmenstein_mode>  (856) 
expansion

>  <fragmenstein_error>  (856) 


$$$$
C2914-P195
     RDKit          3D

 49 53  0  0  0  0  0  0  0  0999 V2000
   -2.7814   -3.0996   31.9266 O   0  0  0  0  0  0  0  0  0  0  0  0
   -2.1137   -1.8968   32.3809 S   0  0  0  0  0  0  0  0  0  0  0  0
   -2.8373   -0.8275   33.0377 O   0  0  0  0  0  0  0  0  0  0  0  0
   -0.8741   -2.3391   33.4275 N   0  0  0  0  0  0  0  0  0  0  0  0
   -0.2231   -3.6460   33.2701 C   0  0  0  0  0  0  0  0  0  0  0  0
   -0.3531   -4.5418   34.5313 C   0  0  0  0  0  0  0  0  0  0  0  0
   -0.7205   -5.9985   34.2341 C   0  0  0  0  0  0  0  0  0  0  0  0
   -1.4892   -6.7190   35.0386 N   0  0  0  0  0  0  0  0  0  0  0  0
   -1.9984   -7.9700   34.5812 C   0  0  0  0  0  0  0  0  0  0  0  0
   -3.5081   -8.7320   35.2061 S   0  0  0  0  0  0  0  0  0  0  0  0
   -3.8871  -10.0789   36.2578 C   0  0  0  0  0  0  0  0  0  0  0  0
   -5.1521  -10.3985   36.3870 N   0  0  0  0  0  0  0  0  0  0  0  0
   -5.4056  -11.3674   37.5559 N   0  0  0  0  0  0  0  0  0  0  0  0
   -4.3384  -11.6475   38.3037 C   0  0  0  0  0  0  0  0  0  0  0  0
   -4.0410  -11.8900   40.0773 C   0  0  0  0  0  0  0  0  0  0  0  0
   -2.8487  -12.3304   40.6334 C   0  0  0  0  0  0  0  0  0  0  0  0
   -2.6131  -11.8409   41.9557 C   0  0  0  0  0  0  0  0  0  0  0  0
   -3.7086  -11.1070   42.2727 C   0  0  0  0  0  0  0  0  0  0  0  0
   -4.4492  -11.0291   41.1242 N   0  0  0  0  0  0  0  0  0  0  0  0
   -3.1858  -10.8943   37.1638 O   0  0  0  0  0  0  0  0  0  0  0  0
   -1.7510   -8.2842   33.2810 C   0  0  0  0  0  0  0  0  0  0  0  0
   -0.8667   -7.6161   32.4947 N   0  0  0  0  0  0  0  0  0  0  0  0
   -0.5326   -7.7823   31.1971 N   0  0  0  0  0  0  0  0  0  0  0  0
    0.3895   -6.8321   31.0334 C   0  0  0  0  0  0  0  0  0  0  0  0
    0.6398   -6.0607   32.1319 N   0  0  0  0  0  0  0  0  0  0  0  0
   -0.2420   -6.5268   32.9876 C   0  0  0  0  0  0  0  0  0  0  0  0
   -1.2950   -1.1521   30.9895 C   0  0  0  0  0  0  0  0  0  0  0  0
   -1.4899   -1.6689   29.7051 C   0  0  0  0  0  0  0  0  0  0  0  0
   -1.0763   -0.9303   28.5948 C   0  0  0  0  0  0  0  0  0  0  0  0
   -0.4604    0.3021   28.7737 C   0  0  0  0  0  0  0  0  0  0  0  0
   -0.1529    1.0346   27.6659 O   0  0  0  0  0  0  0  0  0  0  0  0
   -0.1958    0.7871   30.0514 C   0  0  0  0  0  0  0  0  0  0  0  0
   -0.6243    0.0626   31.1680 C   0  0  0  0  0  0  0  0  0  0  0  0
   -0.9595   -1.9344   34.3590 H   0  0  0  0  0  0  0  0  0  0  0  0
    0.8400   -3.4551   33.0808 H   0  0  0  0  0  0  0  0  0  0  0  0
   -0.6234   -4.1134   32.3699 H   0  0  0  0  0  0  0  0  0  0  0  0
    0.6029   -4.5515   35.0688 H   0  0  0  0  0  0  0  0  0  0  0  0
   -1.1016   -4.1398   35.2233 H   0  0  0  0  0  0  0  0  0  0  0  0
   -2.1835  -12.9965   40.0918 H   0  0  0  0  0  0  0  0  0  0  0  0
   -1.7637  -12.0496   42.5922 H   0  0  0  0  0  0  0  0  0  0  0  0
   -3.9619  -10.5245   43.1475 H   0  0  0  0  0  0  0  0  0  0  0  0
   -4.8426  -10.1389   40.9161 H   0  0  0  0  0  0  0  0  0  0  0  0
   -2.2384   -9.0478   32.7246 H   0  0  0  0  0  0  0  0  0  0  0  0
    0.8911   -6.6939   30.0844 H   0  0  0  0  0  0  0  0  0  0  0  0
   -2.0190   -2.6031   29.5389 H   0  0  0  0  0  0  0  0  0  0  0  0
   -1.2846   -1.2936   27.5915 H   0  0  0  0  0  0  0  0  0  0  0  0
   -0.0815    1.9682   27.9281 H   0  0  0  0  0  0  0  0  0  0  0  0
    0.3016    1.7430   30.1900 H   0  0  0  0  0  0  0  0  0  0  0  0
   -0.4804    0.4726   32.1643 H   0  0  0  0  0  0  0  0  0  0  0  0
  1  2  2  0
  2  3  2  0
  2  4  1  0
  4  5  1  0
  5  6  1  0
  6  7  1  0
  7  8  2  0
  8  9  1  0
  9 10  1  0
 10 11  1  0
 11 12  2  0
 12 13  1  0
 13 14  2  0
 14 15  1  0
 15 16  2  0
 16 17  1  0
 17 18  2  0
 18 19  1  0
 14 20  1  0
  9 21  2  0
 21 22  1  0
 22 23  1  0
 23 24  2  0
 24 25  1  0
 25 26  2  0
  2 27  1  0
 27 28  2  0
 28 29  1  0
 29 30  2  0
 30 31  1  0
 30 32  1  0
 32 33  2  0
 26  7  1  0
 33 27  1  0
 20 11  1  0
 26 22  1  0
 19 15  1  0
  4 34  1  0
  5 35  1  0
  5 36  1  0
  6 37  1  0
  6 38  1  0
 16 39  1  0
 17 40  1  0
 18 41  1  0
 19 42  1  0
 21 43  1  0
 24 44  1  0
 28 45  1  0
 29 46  1  0
 31 47  1  0
 32 48  1  0
 33 49  1  0
M  END
>  <Energy>  (857) 
147.01812494457431

>  <compound_id>  (857) 
2914

>  <target_id>  (857) 
1

>  <reference_id>  (857) 
195

>  <inspiration_ids>  (857) 
[188, 195]

>  <energy_score>  (857) 
136.87832155483267

>  <distance_score>  (857) 
2.3564866998175096

>  <path>  (857) 
/opt/xchem-fragalysis-2/maxwin/BulkDock/SCRATCH/505736/C2914-P195/C2914-P195.minimised.mol

>  <scratch_subdir>  (857) 
/opt/xchem-fragalysis-2/maxwin/BulkDock/SCRATCH/505736/C2914-P195

>  <fragmenstein_runtime>  (857) 
9.941327810287476

>  <fragmenstein_outcome>  (857) 
too moved

>  <fragmenstein_mode>  (857) 
expansion

>  <fragmenstein_error>  (857) 


$$$$
C2891-P188
     RDKit          3D

 53 57  0  0  0  0  0  0  0  0999 V2000
   -1.3542   -3.3729   30.8853 O   0  0  0  0  0  0  0  0  0  0  0  0
   -0.4920   -2.2559   31.2138 S   0  0  0  0  0  0  0  0  0  0  0  0
   -0.6257   -1.5508   32.4692 O   0  0  0  0  0  0  0  0  0  0  0  0
    1.0904   -2.7797   31.1241 N   0  0  0  0  0  0  0  0  0  0  0  0
    1.5918   -3.6174   30.0364 C   0  0  0  0  0  0  0  0  0  0  0  0
    2.2942   -4.8621   30.6034 C   0  0  0  0  0  0  0  0  0  0  0  0
    1.2994   -5.6564   31.3901 C   0  0  0  0  0  0  0  0  0  0  0  0
    1.1334   -5.5600   32.6897 N   0  0  0  0  0  0  0  0  0  0  0  0
   -0.0800   -6.0656   33.1635 C   0  0  0  0  0  0  0  0  0  0  0  0
   -0.3010   -6.5797   34.4232 N   0  0  0  0  0  0  0  0  0  0  0  0
   -1.2795   -7.4357   34.8316 C   0  0  0  0  0  0  0  0  0  0  0  0
   -1.4709   -7.9434   36.0154 N   0  0  0  0  0  0  0  0  0  0  0  0
   -2.6957   -8.6074   35.9824 N   0  0  0  0  0  0  0  0  0  0  0  0
   -3.3507   -8.2092   34.9141 C   0  0  0  0  0  0  0  0  0  0  0  0
   -4.8691   -7.8418   34.9819 C   0  0  0  0  0  0  0  0  0  0  0  0
   -5.5374   -8.1365   36.2298 C   0  0  0  0  0  0  0  0  0  0  0  0
   -7.2068   -7.3608   36.1122 C   0  0  0  0  0  0  0  0  0  0  0  0
   -8.0611   -6.5476   35.3387 C   0  0  0  0  0  0  0  0  0  0  0  0
   -7.7782   -6.9285   34.1648 C   0  0  0  0  0  0  0  0  0  0  0  0
   -6.4136   -6.8272   34.2799 C   0  0  0  0  0  0  0  0  0  0  0  0
   -2.2931   -7.9712   34.0523 N   0  0  0  0  0  0  0  0  0  0  0  0
   -1.1102   -6.0989   32.2965 C   0  0  0  0  0  0  0  0  0  0  0  0
   -0.7892   -6.7629   31.1142 C   0  0  0  0  0  0  0  0  0  0  0  0
   -1.2507   -7.8528   30.5511 N   0  0  0  0  0  0  0  0  0  0  0  0
   -0.2088   -8.1825   29.7369 C   0  0  0  0  0  0  0  0  0  0  0  0
    0.7659   -7.2635   29.6297 N   0  0  0  0  0  0  0  0  0  0  0  0
    0.4231   -6.4238   30.6230 N   0  0  0  0  0  0  0  0  0  0  0  0
   -0.5833   -1.0476   29.9253 C   0  0  0  0  0  0  0  0  0  0  0  0
   -1.2763   -1.3304   28.7497 C   0  0  0  0  0  0  0  0  0  0  0  0
   -1.4370   -0.3259   27.7962 C   0  0  0  0  0  0  0  0  0  0  0  0
   -0.9020    0.9367   28.0187 C   0  0  0  0  0  0  0  0  0  0  0  0
   -1.0933    1.9409   27.1191 O   0  0  0  0  0  0  0  0  0  0  0  0
   -0.1761    1.2111   29.1700 C   0  0  0  0  0  0  0  0  0  0  0  0
   -0.0279    0.2202   30.1405 C   0  0  0  0  0  0  0  0  0  0  0  0
    1.6955   -2.4966   31.8947 H   0  0  0  0  0  0  0  0  0  0  0  0
    2.3125   -3.0305   29.4571 H   0  0  0  0  0  0  0  0  0  0  0  0
    0.7839   -3.9047   29.3553 H   0  0  0  0  0  0  0  0  0  0  0  0
    2.7201   -5.4540   29.7880 H   0  0  0  0  0  0  0  0  0  0  0  0
    3.1098   -4.5615   31.2706 H   0  0  0  0  0  0  0  0  0  0  0  0
    0.4381   -6.3773   35.0881 H   0  0  0  0  0  0  0  0  0  0  0  0
   -5.2090   -8.9908   36.7733 H   0  0  0  0  0  0  0  0  0  0  0  0
   -7.9421   -7.5227   36.9435 H   0  0  0  0  0  0  0  0  0  0  0  0
   -9.0234   -6.1930   35.6678 H   0  0  0  0  0  0  0  0  0  0  0  0
   -8.3863   -7.1511   33.3155 H   0  0  0  0  0  0  0  0  0  0  0  0
   -6.3549   -5.6968   34.2247 H   0  0  0  0  0  0  0  0  0  0  0  0
   -2.3119   -8.0753   33.0509 H   0  0  0  0  0  0  0  0  0  0  0  0
   -2.1064   -6.1907   32.6393 H   0  0  0  0  0  0  0  0  0  0  0  0
   -0.1752   -9.0955   29.1556 H   0  0  0  0  0  0  0  0  0  0  0  0
   -1.7146   -2.3085   28.5659 H   0  0  0  0  0  0  0  0  0  0  0  0
   -1.9859   -0.5418   26.8841 H   0  0  0  0  0  0  0  0  0  0  0  0
   -1.9838    1.8240   26.7397 H   0  0  0  0  0  0  0  0  0  0  0  0
    0.2386    2.2039   29.3228 H   0  0  0  0  0  0  0  0  0  0  0  0
    0.5028    0.4460   31.0620 H   0  0  0  0  0  0  0  0  0  0  0  0
  1  2  2  0
  2  3  2  0
  2  4  1  0
  4  5  1  0
  5  6  1  0
  6  7  1  0
  7  8  2  0
  8  9  1  0
  9 10  1  0
 10 11  1  0
 11 12  2  0
 12 13  1  0
 13 14  2  0
 14 15  1  0
 15 16  2  0
 16 17  1  0
 17 18  2  0
 18 19  1  0
 19 20  2  0
 14 21  1  0
  9 22  2  0
 22 23  1  0
 23 24  2  0
 24 25  1  0
 25 26  2  0
 26 27  1  0
  2 28  1  0
 28 29  2  0
 29 30  1  0
 30 31  2  0
 31 32  1  0
 31 33  1  0
 33 34  2  0
 27  7  1  0
 34 28  1  0
 21 11  1  0
 27 23  1  0
 20 15  1  0
  4 35  1  0
  5 36  1  0
  5 37  1  0
  6 38  1  0
  6 39  1  0
 10 40  1  0
 16 41  1  0
 17 42  1  0
 18 43  1  0
 19 44  1  0
 20 45  1  0
 21 46  1  0
 22 47  1  0
 25 48  1  0
 29 49  1  0
 30 50  1  0
 32 51  1  0
 33 52  1  0
 34 53  1  0
M  END
>  <Energy>  (858) 
388.64905395530616

>  <compound_id>  (858) 
2891

>  <target_id>  (858) 
1

>  <reference_id>  (858) 
188

>  <inspiration_ids>  (858) 
[188, 196]

>  <energy_score>  (858) 
343.6861392498245

>  <distance_score>  (858) 
1.0867047918473516

>  <path>  (858) 
/opt/xchem-fragalysis-2/maxwin/BulkDock/SCRATCH/505736/C2891-P188/C2891-P188.minimised.mol

>  <scratch_subdir>  (858) 
/opt/xchem-fragalysis-2/maxwin/BulkDock/SCRATCH/505736/C2891-P188

>  <fragmenstein_runtime>  (858) 
11.7261962890625

>  <fragmenstein_outcome>  (858) 
too moved

>  <fragmenstein_mode>  (858) 
expansion

>  <fragmenstein_error>  (858) 


$$$$
C2891-P196
     RDKit          3D

 53 57  0  0  0  0  0  0  0  0999 V2000
   -2.2254   -3.2604   31.2840 O   0  0  0  0  0  0  0  0  0  0  0  0
   -1.1762   -2.4371   31.8429 S   0  0  0  0  0  0  0  0  0  0  0  0
   -1.2636   -1.9226   33.1904 O   0  0  0  0  0  0  0  0  0  0  0  0
    0.2566   -3.2923   31.7424 N   0  0  0  0  0  0  0  0  0  0  0  0
    0.7600   -3.8028   30.4608 C   0  0  0  0  0  0  0  0  0  0  0  0
    1.7523   -4.9386   30.7144 C   0  0  0  0  0  0  0  0  0  0  0  0
    1.0560   -5.9998   31.5093 C   0  0  0  0  0  0  0  0  0  0  0  0
    1.0208   -5.9834   32.8165 N   0  0  0  0  0  0  0  0  0  0  0  0
    0.1895   -6.8969   33.4428 C   0  0  0  0  0  0  0  0  0  0  0  0
   -0.0095   -6.8670   34.8266 N   0  0  0  0  0  0  0  0  0  0  0  0
   -1.1289   -7.4299   35.3271 C   0  0  0  0  0  0  0  0  0  0  0  0
   -1.3619   -8.3946   36.1533 N   0  0  0  0  0  0  0  0  0  0  0  0
   -2.6783   -8.8334   35.9233 N   0  0  0  0  0  0  0  0  0  0  0  0
   -3.2648   -8.0565   35.0312 C   0  0  0  0  0  0  0  0  0  0  0  0
   -4.8492   -7.9020   34.9865 C   0  0  0  0  0  0  0  0  0  0  0  0
   -5.5016   -8.2203   36.2098 C   0  0  0  0  0  0  0  0  0  0  0  0
   -7.1859   -7.4490   36.1388 C   0  0  0  0  0  0  0  0  0  0  0  0
   -8.0398   -6.6076   35.3820 C   0  0  0  0  0  0  0  0  0  0  0  0
   -7.7363   -6.9430   34.2004 C   0  0  0  0  0  0  0  0  0  0  0  0
   -6.3801   -6.8270   34.3525 C   0  0  0  0  0  0  0  0  0  0  0  0
   -2.2983   -7.1157   34.7235 N   0  0  0  0  0  0  0  0  0  0  0  0
   -0.5317   -7.7971   32.7262 C   0  0  0  0  0  0  0  0  0  0  0  0
   -0.4529   -7.8630   31.3545 C   0  0  0  0  0  0  0  0  0  0  0  0
   -0.9021   -8.7345   30.4963 N   0  0  0  0  0  0  0  0  0  0  0  0
   -0.0932   -8.4801   29.4460 C   0  0  0  0  0  0  0  0  0  0  0  0
    0.6296   -7.3502   29.5152 N   0  0  0  0  0  0  0  0  0  0  0  0
    0.3776   -6.9672   30.7758 N   0  0  0  0  0  0  0  0  0  0  0  0
   -0.8267   -1.0782   30.7690 C   0  0  0  0  0  0  0  0  0  0  0  0
   -1.1278   -1.1451   29.4051 C   0  0  0  0  0  0  0  0  0  0  0  0
   -0.6556   -0.1391   28.5609 C   0  0  0  0  0  0  0  0  0  0  0  0
    0.0926    0.9054   29.0987 C   0  0  0  0  0  0  0  0  0  0  0  0
    0.6745    1.8625   28.3339 O   0  0  0  0  0  0  0  0  0  0  0  0
    0.3261    1.0064   30.4641 C   0  0  0  0  0  0  0  0  0  0  0  0
   -0.1367    0.0116   31.3101 C   0  0  0  0  0  0  0  0  0  0  0  0
    0.9095   -3.1094   32.5060 H   0  0  0  0  0  0  0  0  0  0  0  0
    1.2761   -2.9979   29.9284 H   0  0  0  0  0  0  0  0  0  0  0  0
   -0.0707   -4.1589   29.8423 H   0  0  0  0  0  0  0  0  0  0  0  0
    2.1487   -5.3232   29.7705 H   0  0  0  0  0  0  0  0  0  0  0  0
    2.6013   -4.5700   31.3024 H   0  0  0  0  0  0  0  0  0  0  0  0
    0.8518   -7.0338   35.3360 H   0  0  0  0  0  0  0  0  0  0  0  0
   -5.1300   -9.0396   36.7853 H   0  0  0  0  0  0  0  0  0  0  0  0
   -7.8872   -7.6852   37.0048 H   0  0  0  0  0  0  0  0  0  0  0  0
   -9.0112   -6.2695   35.7013 H   0  0  0  0  0  0  0  0  0  0  0  0
   -8.3227   -7.1725   33.3377 H   0  0  0  0  0  0  0  0  0  0  0  0
   -6.2706   -5.7106   34.3045 H   0  0  0  0  0  0  0  0  0  0  0  0
   -2.3312   -6.3261   34.1021 H   0  0  0  0  0  0  0  0  0  0  0  0
   -1.1551   -8.5631   33.1647 H   0  0  0  0  0  0  0  0  0  0  0  0
   -0.0491   -9.1200   28.5780 H   0  0  0  0  0  0  0  0  0  0  0  0
   -1.6724   -1.9902   28.9872 H   0  0  0  0  0  0  0  0  0  0  0  0
   -0.8490   -0.1980   27.4949 H   0  0  0  0  0  0  0  0  0  0  0  0
    0.5717    1.6629   27.3811 H   0  0  0  0  0  0  0  0  0  0  0  0
    0.9025    1.8416   30.8539 H   0  0  0  0  0  0  0  0  0  0  0  0
    0.0903    0.0653   32.3723 H   0  0  0  0  0  0  0  0  0  0  0  0
  1  2  2  0
  2  3  2  0
  2  4  1  0
  4  5  1  0
  5  6  1  0
  6  7  1  0
  7  8  2  0
  8  9  1  0
  9 10  1  0
 10 11  1  0
 11 12  2  0
 12 13  1  0
 13 14  2  0
 14 15  1  0
 15 16  2  0
 16 17  1  0
 17 18  2  0
 18 19  1  0
 19 20  2  0
 14 21  1  0
  9 22  2  0
 22 23  1  0
 23 24  2  0
 24 25  1  0
 25 26  2  0
 26 27  1  0
  2 28  1  0
 28 29  2  0
 29 30  1  0
 30 31  2  0
 31 32  1  0
 31 33  1  0
 33 34  2  0
 27  7  1  0
 34 28  1  0
 21 11  1  0
 27 23  1  0
 20 15  1  0
  4 35  1  0
  5 36  1  0
  5 37  1  0
  6 38  1  0
  6 39  1  0
 10 40  1  0
 16 41  1  0
 17 42  1  0
 18 43  1  0
 19 44  1  0
 20 45  1  0
 21 46  1  0
 22 47  1  0
 25 48  1  0
 29 49  1  0
 30 50  1  0
 32 51  1  0
 33 52  1  0
 34 53  1  0
M  END
>  <Energy>  (859) 
346.34841323403708

>  <compound_id>  (859) 
2891

>  <target_id>  (859) 
1

>  <reference_id>  (859) 
196

>  <inspiration_ids>  (859) 
[188, 196]

>  <energy_score>  (859) 
301.3854985285587

>  <distance_score>  (859) 
1.3420881926817785

>  <path>  (859) 
/opt/xchem-fragalysis-2/maxwin/BulkDock/SCRATCH/505736/C2891-P196/C2891-P196.minimised.mol

>  <scratch_subdir>  (859) 
/opt/xchem-fragalysis-2/maxwin/BulkDock/SCRATCH/505736/C2891-P196

>  <fragmenstein_runtime>  (859) 
7.617909908294678

>  <fragmenstein_outcome>  (859) 
too moved

>  <fragmenstein_mode>  (859) 
expansion

>  <fragmenstein_error>  (859) 


$$$$
C2919-P189
     RDKit          3D

 74 76  0  0  0  0  0  0  0  0999 V2000
   -1.5021   -8.1986   32.9601 C   0  0  0  0  0  0  0  0  0  0  0  0
   -0.3736   -7.7223   33.8677 C   0  0  0  0  0  0  0  0  0  0  0  0
   -0.3754   -6.2363   34.1369 C   0  0  0  0  0  0  0  0  0  0  0  0
   -0.4936   -5.5080   32.8495 C   0  0  0  0  0  0  0  0  0  0  0  0
   -1.5781   -4.7557   32.6882 N   0  0  0  0  0  0  0  0  0  0  0  0
   -1.7579   -4.0584   31.5548 N   0  0  0  0  0  0  0  0  0  0  0  0
   -0.8388   -4.1054   30.5887 C   0  0  0  0  0  0  0  0  0  0  0  0
   -1.0520   -3.1950   29.4092 C   0  0  0  0  0  0  0  0  0  0  0  0
   -2.0734   -1.9808   29.5625 C   0  0  0  0  0  0  0  0  0  0  0  0
   -2.1788   -1.1211   30.8868 C   0  0  0  0  0  0  0  0  0  0  0  0
   -1.1392   -0.2523   31.6684 C   0  0  0  0  0  0  0  0  0  0  0  0
   -0.3262    0.8234   31.1286 N   0  0  0  0  0  0  0  0  0  0  0  0
    0.0891    1.9534   31.7820 C   0  0  0  0  0  0  0  0  0  0  0  0
   -0.0454    2.2005   33.4899 S   0  0  0  0  0  0  0  0  0  0  0  0
    0.7473    2.7450   30.9708 N   0  0  0  0  0  0  0  0  0  0  0  0
    1.0120    2.0358   29.8482 N   0  0  0  0  0  0  0  0  0  0  0  0
    0.4533    0.8600   29.9968 C   0  0  0  0  0  0  0  0  0  0  0  0
    0.6365   -0.2727   29.1059 C   0  0  0  0  0  0  0  0  0  0  0  0
    1.8281   -1.1744   29.4851 C   0  0  0  0  0  0  0  0  0  0  0  0
    1.5388   -1.6474   30.9111 C   0  0  0  0  0  0  0  0  0  0  0  0
    2.2834   -2.7677   31.5615 C   0  0  0  0  0  0  0  0  0  0  0  0
    1.6024   -2.9966   32.8398 N   0  0  0  0  0  0  0  0  0  0  0  0
    0.4774    0.1283   27.6735 C   0  0  0  0  0  0  0  0  0  0  0  0
   -0.7856    0.9508   27.3179 C   0  0  0  0  0  0  0  0  0  0  0  0
   -0.4977    2.4588   27.1292 C   0  0  0  0  0  0  0  0  0  0  0  0
   -1.5376    3.4891   27.5610 C   0  0  0  0  0  0  0  0  0  0  0  0
   -1.1383    4.9452   27.2424 C   0  0  0  0  0  0  0  0  0  0  0  0
    0.2524    5.3409   27.7272 C   0  0  0  0  0  0  0  0  0  0  0  0
   -2.0754    5.8424   27.8438 O   0  0  0  0  0  0  0  0  0  0  0  0
   -2.3244    0.4226   28.0072 S   0  0  0  0  0  0  0  0  0  0  0  0
   -2.5084    1.0459   29.2894 O   0  0  0  0  0  0  0  0  0  0  0  0
   -3.3162    0.4965   26.9579 O   0  0  0  0  0  0  0  0  0  0  0  0
   -2.1083   -1.2172   28.2531 N   0  0  0  0  0  0  0  0  0  0  0  0
    0.2336   -4.9146   30.6435 N   0  0  0  0  0  0  0  0  0  0  0  0
    0.3767   -5.5876   31.7969 C   0  0  0  0  0  0  0  0  0  0  0  0
    1.5542   -6.2476   31.8644 O   0  0  0  0  0  0  0  0  0  0  0  0
   -1.1808   -9.0474   32.3564 H   0  0  0  0  0  0  0  0  0  0  0  0
   -2.3495   -8.5057   33.5724 H   0  0  0  0  0  0  0  0  0  0  0  0
   -1.8540   -7.4633   32.2369 H   0  0  0  0  0  0  0  0  0  0  0  0
    0.5765   -7.9590   33.3903 H   0  0  0  0  0  0  0  0  0  0  0  0
   -0.3938   -8.2582   34.8220 H   0  0  0  0  0  0  0  0  0  0  0  0
   -1.2073   -5.9827   34.8033 H   0  0  0  0  0  0  0  0  0  0  0  0
    0.5450   -5.9367   34.6509 H   0  0  0  0  0  0  0  0  0  0  0  0
   -0.0843   -2.8738   29.0340 H   0  0  0  0  0  0  0  0  0  0  0  0
   -1.3996   -3.8363   28.6008 H   0  0  0  0  0  0  0  0  0  0  0  0
   -3.0425   -2.4951   29.5501 H   0  0  0  0  0  0  0  0  0  0  0  0
   -2.5351   -1.8238   31.6519 H   0  0  0  0  0  0  0  0  0  0  0  0
   -3.0523   -0.4729   30.7932 H   0  0  0  0  0  0  0  0  0  0  0  0
   -0.4955   -0.8851   32.2831 H   0  0  0  0  0  0  0  0  0  0  0  0
   -1.7690    0.2468   32.4207 H   0  0  0  0  0  0  0  0  0  0  0  0
    0.6876    3.3237   33.5308 H   0  0  0  0  0  0  0  0  0  0  0  0
   -0.1939   -0.8979   29.2979 H   0  0  0  0  0  0  0  0  0  0  0  0
    1.9176   -2.0237   28.8002 H   0  0  0  0  0  0  0  0  0  0  0  0
    2.7724   -0.6194   29.4522 H   0  0  0  0  0  0  0  0  0  0  0  0
    0.5009   -1.9438   30.9492 H   0  0  0  0  0  0  0  0  0  0  0  0
    1.6780   -0.7854   31.5764 H   0  0  0  0  0  0  0  0  0  0  0  0
    3.3208   -2.4748   31.7538 H   0  0  0  0  0  0  0  0  0  0  0  0
    2.3152   -3.6595   30.9362 H   0  0  0  0  0  0  0  0  0  0  0  0
    2.0164   -3.7942   33.3184 H   0  0  0  0  0  0  0  0  0  0  0  0
    0.6086   -3.1757   32.7289 H   0  0  0  0  0  0  0  0  0  0  0  0
    0.4112   -0.8256   27.1722 H   0  0  0  0  0  0  0  0  0  0  0  0
    1.3841    0.6239   27.3076 H   0  0  0  0  0  0  0  0  0  0  0  0
   -1.0312    0.6341   26.3204 H   0  0  0  0  0  0  0  0  0  0  0  0
   -0.2919    2.6262   26.0627 H   0  0  0  0  0  0  0  0  0  0  0  0
    0.4508    2.6968   27.6160 H   0  0  0  0  0  0  0  0  0  0  0  0
   -2.5027    3.2832   27.0835 H   0  0  0  0  0  0  0  0  0  0  0  0
   -1.7033    3.4047   28.6330 H   0  0  0  0  0  0  0  0  0  0  0  0
   -1.1946    5.1039   26.1599 H   0  0  0  0  0  0  0  0  0  0  0  0
    0.4064    6.4189   27.6064 H   0  0  0  0  0  0  0  0  0  0  0  0
    1.0397    4.8232   27.1722 H   0  0  0  0  0  0  0  0  0  0  0  0
    0.3720    5.1231   28.7942 H   0  0  0  0  0  0  0  0  0  0  0  0
   -1.9491    5.7693   28.8159 H   0  0  0  0  0  0  0  0  0  0  0  0
   -2.4754   -1.7584   27.4546 H   0  0  0  0  0  0  0  0  0  0  0  0
    1.9273   -5.9851   31.0038 H   0  0  0  0  0  0  0  0  0  0  0  0
  1  2  1  0
  2  3  1  0
  3  4  1  0
  4  5  2  0
  5  6  1  0
  6  7  2  0
  7  8  1  0
  8  9  1  0
  9 10  1  0
 10 11  1  0
 11 12  1  0
 12 13  1  0
 13 14  1  0
 13 15  2  0
 15 16  1  0
 16 17  2  0
 17 18  1  0
 18 19  1  0
 19 20  1  0
 20 21  1  0
 21 22  1  0
 18 23  1  0
 23 24  1  0
 24 25  1  0
 25 26  1  0
 26 27  1  0
 27 28  1  0
 27 29  1  0
 24 30  1  0
 30 31  2  0
 30 32  2  0
 30 33  1  0
  7 34  1  0
 34 35  2  0
 35 36  1  0
 35  4  1  0
 33  9  1  0
 17 12  1  0
  1 37  1  0
  1 38  1  0
  1 39  1  0
  2 40  1  0
  2 41  1  0
  3 42  1  0
  3 43  1  0
  8 44  1  0
  8 45  1  0
  9 46  1  0
 10 47  1  0
 10 48  1  0
 11 49  1  0
 11 50  1  0
 14 51  1  0
 18 52  1  0
 19 53  1  0
 19 54  1  0
 20 55  1  0
 20 56  1  0
 21 57  1  0
 21 58  1  0
 22 59  1  0
 22 60  1  0
 23 61  1  0
 23 62  1  0
 24 63  1  0
 25 64  1  0
 25 65  1  0
 26 66  1  0
 26 67  1  0
 27 68  1  0
 28 69  1  0
 28 70  1  0
 28 71  1  0
 29 72  1  0
 33 73  1  0
 36 74  1  0
M  END
>  <Energy>  (860) 
38.897995991863169

>  <compound_id>  (860) 
2919

>  <target_id>  (860) 
1

>  <reference_id>  (860) 
189

>  <inspiration_ids>  (860) 
[189, 13]

>  <energy_score>  (860) 
-120.71055493784144

>  <distance_score>  (860) 
2.8861480782388473

>  <path>  (860) 
/opt/xchem-fragalysis-2/maxwin/BulkDock/SCRATCH/505736/C2919-P189/C2919-P189.minimised.mol

>  <scratch_subdir>  (860) 
/opt/xchem-fragalysis-2/maxwin/BulkDock/SCRATCH/505736/C2919-P189

>  <fragmenstein_runtime>  (860) 
8.649037599563599

>  <fragmenstein_outcome>  (860) 
too moved

>  <fragmenstein_mode>  (860) 
expansion

>  <fragmenstein_error>  (860) 


$$$$
C2919-P13
     RDKit          3D

 74 76  0  0  0  0  0  0  0  0999 V2000
   -1.1132   -7.3054   35.7754 C   0  0  0  0  0  0  0  0  0  0  0  0
   -0.0308   -7.7052   34.8006 C   0  0  0  0  0  0  0  0  0  0  0  0
    0.7085   -6.5323   34.2044 C   0  0  0  0  0  0  0  0  0  0  0  0
   -0.1515   -5.7115   33.3063 C   0  0  0  0  0  0  0  0  0  0  0  0
   -0.6325   -4.5677   33.7998 N   0  0  0  0  0  0  0  0  0  0  0  0
   -1.1474   -3.6286   32.9501 N   0  0  0  0  0  0  0  0  0  0  0  0
   -1.1584   -3.8477   31.6313 C   0  0  0  0  0  0  0  0  0  0  0  0
   -1.6530   -2.7240   30.7251 C   0  0  0  0  0  0  0  0  0  0  0  0
   -1.4511   -1.2226   31.2045 C   0  0  0  0  0  0  0  0  0  0  0  0
   -0.0617   -0.8786   31.7817 C   0  0  0  0  0  0  0  0  0  0  0  0
    0.6959    0.4396   31.5915 C   0  0  0  0  0  0  0  0  0  0  0  0
    1.5182    0.7068   30.4159 N   0  0  0  0  0  0  0  0  0  0  0  0
    2.0980    1.9355   30.1536 C   0  0  0  0  0  0  0  0  0  0  0  0
    2.1801    3.2427   31.2804 S   0  0  0  0  0  0  0  0  0  0  0  0
    2.5950    1.9683   28.9443 N   0  0  0  0  0  0  0  0  0  0  0  0
    2.3554    0.7598   28.3733 N   0  0  0  0  0  0  0  0  0  0  0  0
    1.6219    0.0447   29.2040 C   0  0  0  0  0  0  0  0  0  0  0  0
    0.8527   -1.1392   28.7489 C   0  0  0  0  0  0  0  0  0  0  0  0
    1.7974   -2.3185   28.4389 C   0  0  0  0  0  0  0  0  0  0  0  0
    1.6790   -3.4426   29.4606 C   0  0  0  0  0  0  0  0  0  0  0  0
    2.4101   -3.0951   30.7482 C   0  0  0  0  0  0  0  0  0  0  0  0
    1.8033   -3.7415   31.8900 N   0  0  0  0  0  0  0  0  0  0  0  0
    0.0039   -0.7703   27.5274 C   0  0  0  0  0  0  0  0  0  0  0  0
   -1.3906   -0.1936   27.6549 C   0  0  0  0  0  0  0  0  0  0  0  0
   -1.9537    0.6106   26.4538 C   0  0  0  0  0  0  0  0  0  0  0  0
   -1.7006    2.1266   26.2204 C   0  0  0  0  0  0  0  0  0  0  0  0
   -0.2789    2.6824   26.3257 C   0  0  0  0  0  0  0  0  0  0  0  0
   -0.2252    3.9895   27.1130 C   0  0  0  0  0  0  0  0  0  0  0  0
    0.1911    2.9559   24.9999 O   0  0  0  0  0  0  0  0  0  0  0  0
   -1.6726    0.7417   29.0697 S   0  0  0  0  0  0  0  0  0  0  0  0
   -2.8737    1.4453   28.7562 O   0  0  0  0  0  0  0  0  0  0  0  0
   -0.5528    1.5474   29.4305 O   0  0  0  0  0  0  0  0  0  0  0  0
   -2.1232   -0.2688   30.2853 N   0  0  0  0  0  0  0  0  0  0  0  0
   -0.8505   -5.0547   31.1079 N   0  0  0  0  0  0  0  0  0  0  0  0
   -0.3390   -5.9508   31.9719 C   0  0  0  0  0  0  0  0  0  0  0  0
    0.1050   -7.0779   31.3611 O   0  0  0  0  0  0  0  0  0  0  0  0
   -1.5781   -8.2114   36.1697 H   0  0  0  0  0  0  0  0  0  0  0  0
   -0.7035   -6.7301   36.6112 H   0  0  0  0  0  0  0  0  0  0  0  0
   -1.8910   -6.7120   35.2909 H   0  0  0  0  0  0  0  0  0  0  0  0
   -0.4784   -8.2841   33.9898 H   0  0  0  0  0  0  0  0  0  0  0  0
    0.6853   -8.3403   35.3326 H   0  0  0  0  0  0  0  0  0  0  0  0
    1.1137   -5.9002   35.0049 H   0  0  0  0  0  0  0  0  0  0  0  0
    1.5790   -6.8892   33.6411 H   0  0  0  0  0  0  0  0  0  0  0  0
   -1.3012   -2.8723   29.7024 H   0  0  0  0  0  0  0  0  0  0  0  0
   -2.7366   -2.8624   30.6666 H   0  0  0  0  0  0  0  0  0  0  0  0
   -2.1018   -1.1551   32.0934 H   0  0  0  0  0  0  0  0  0  0  0  0
    0.6065   -1.6840   31.5428 H   0  0  0  0  0  0  0  0  0  0  0  0
   -0.1776   -0.9737   32.8731 H   0  0  0  0  0  0  0  0  0  0  0  0
    1.4200    0.4902   32.4178 H   0  0  0  0  0  0  0  0  0  0  0  0
    0.0080    1.2777   31.7447 H   0  0  0  0  0  0  0  0  0  0  0  0
    2.6407    4.1508   30.4076 H   0  0  0  0  0  0  0  0  0  0  0  0
    0.1712   -1.4706   29.4995 H   0  0  0  0  0  0  0  0  0  0  0  0
    1.5600   -2.7730   27.4823 H   0  0  0  0  0  0  0  0  0  0  0  0
    2.8439   -1.9971   28.3585 H   0  0  0  0  0  0  0  0  0  0  0  0
    2.1348   -4.3514   29.0452 H   0  0  0  0  0  0  0  0  0  0  0  0
    0.6334   -3.6912   29.6049 H   0  0  0  0  0  0  0  0  0  0  0  0
    2.4827   -2.0201   30.9199 H   0  0  0  0  0  0  0  0  0  0  0  0
    3.4512   -3.4321   30.6658 H   0  0  0  0  0  0  0  0  0  0  0  0
    2.2384   -3.4053   32.7506 H   0  0  0  0  0  0  0  0  0  0  0  0
    2.0171   -4.7362   31.8501 H   0  0  0  0  0  0  0  0  0  0  0  0
   -0.1973   -1.7303   27.0821 H   0  0  0  0  0  0  0  0  0  0  0  0
    0.6006   -0.1700   26.8448 H   0  0  0  0  0  0  0  0  0  0  0  0
   -2.0745   -1.0502   27.7604 H   0  0  0  0  0  0  0  0  0  0  0  0
   -3.0447    0.5601   26.5221 H   0  0  0  0  0  0  0  0  0  0  0  0
   -1.7831    0.0390   25.5695 H   0  0  0  0  0  0  0  0  0  0  0  0
   -2.1022    2.3510   25.2218 H   0  0  0  0  0  0  0  0  0  0  0  0
   -2.3511    2.6972   26.8918 H   0  0  0  0  0  0  0  0  0  0  0  0
    0.4068    1.9691   26.7791 H   0  0  0  0  0  0  0  0  0  0  0  0
    0.7980    4.3805   27.1287 H   0  0  0  0  0  0  0  0  0  0  0  0
   -0.5611    3.8558   28.1444 H   0  0  0  0  0  0  0  0  0  0  0  0
   -0.8485    4.7591   26.6440 H   0  0  0  0  0  0  0  0  0  0  0  0
   -0.2836    3.7451   24.6822 H   0  0  0  0  0  0  0  0  0  0  0  0
   -3.1314   -0.1876   30.4185 H   0  0  0  0  0  0  0  0  0  0  0  0
   -0.1522   -6.8854   30.4414 H   0  0  0  0  0  0  0  0  0  0  0  0
  1  2  1  0
  2  3  1  0
  3  4  1  0
  4  5  2  0
  5  6  1  0
  6  7  2  0
  7  8  1  0
  8  9  1  0
  9 10  1  0
 10 11  1  0
 11 12  1  0
 12 13  1  0
 13 14  1  0
 13 15  2  0
 15 16  1  0
 16 17  2  0
 17 18  1  0
 18 19  1  0
 19 20  1  0
 20 21  1  0
 21 22  1  0
 18 23  1  0
 23 24  1  0
 24 25  1  0
 25 26  1  0
 26 27  1  0
 27 28  1  0
 27 29  1  0
 24 30  1  0
 30 31  2  0
 30 32  2  0
 30 33  1  0
  7 34  1  0
 34 35  2  0
 35 36  1  0
 35  4  1  0
 33  9  1  0
 17 12  1  0
  1 37  1  0
  1 38  1  0
  1 39  1  0
  2 40  1  0
  2 41  1  0
  3 42  1  0
  3 43  1  0
  8 44  1  0
  8 45  1  0
  9 46  1  0
 10 47  1  0
 10 48  1  0
 11 49  1  0
 11 50  1  0
 14 51  1  0
 18 52  1  0
 19 53  1  0
 19 54  1  0
 20 55  1  0
 20 56  1  0
 21 57  1  0
 21 58  1  0
 22 59  1  0
 22 60  1  0
 23 61  1  0
 23 62  1  0
 24 63  1  0
 25 64  1  0
 25 65  1  0
 26 66  1  0
 26 67  1  0
 27 68  1  0
 28 69  1  0
 28 70  1  0
 28 71  1  0
 29 72  1  0
 33 73  1  0
 36 74  1  0
M  END
>  <Energy>  (861) 
40.753650207655696

>  <compound_id>  (861) 
2919

>  <target_id>  (861) 
1

>  <reference_id>  (861) 
13

>  <inspiration_ids>  (861) 
[189, 13]

>  <energy_score>  (861) 
-118.85490072204874

>  <distance_score>  (861) 
2.986580567957257

>  <path>  (861) 
/opt/xchem-fragalysis-2/maxwin/BulkDock/SCRATCH/505736/C2919-P13/C2919-P13.minimised.mol

>  <scratch_subdir>  (861) 
/opt/xchem-fragalysis-2/maxwin/BulkDock/SCRATCH/505736/C2919-P13

>  <fragmenstein_runtime>  (861) 
9.217501163482666

>  <fragmenstein_outcome>  (861) 
too moved

>  <fragmenstein_mode>  (861) 
expansion

>  <fragmenstein_error>  (861) 


$$$$
C2899-P189
     RDKit          3D

 53 56  0  0  0  0  0  0  0  0999 V2000
   -2.1254   -3.1206   31.3337 O   0  0  0  0  0  0  0  0  0  0  0  0
   -1.2879   -1.9532   31.5012 S   0  0  0  0  0  0  0  0  0  0  0  0
   -1.3947   -1.0732   32.6433 O   0  0  0  0  0  0  0  0  0  0  0  0
    0.3363   -2.3991   31.3380 N   0  0  0  0  0  0  0  0  0  0  0  0
    1.0766   -2.7128   32.5678 C   0  0  0  0  0  0  0  0  0  0  0  0
    2.0138   -3.9002   32.3870 C   0  0  0  0  0  0  0  0  0  0  0  0
    1.6337   -5.2688   32.9995 C   0  0  0  0  0  0  0  0  0  0  0  0
    1.7995   -6.3676   32.0462 N   0  0  0  0  0  0  0  0  0  0  0  0
    0.5674   -7.1169   32.0703 C   0  0  0  0  0  0  0  0  0  0  0  0
   -0.3804   -7.0335   30.5087 S   0  0  0  0  0  0  0  0  0  0  0  0
    0.0030   -5.3466   29.9105 C   0  0  0  0  0  0  0  0  0  0  0  0
    1.2730   -5.1080   29.1099 C   0  0  0  0  0  0  0  0  0  0  0  0
    1.5478   -3.7947   28.7227 C   0  0  0  0  0  0  0  0  0  0  0  0
    2.6706   -3.5181   27.9643 C   0  0  0  0  0  0  0  0  0  0  0  0
    3.4817   -4.4711   27.4785 N   0  0  0  0  0  0  0  0  0  0  0  0
    3.1957   -5.7399   27.8114 C   0  0  0  0  0  0  0  0  0  0  0  0
    2.1410   -6.0952   28.6363 C   0  0  0  0  0  0  0  0  0  0  0  0
    0.1255   -6.9393   33.5219 C   0  0  0  0  0  0  0  0  0  0  0  0
   -1.3418   -7.0471   33.6986 C   0  0  0  0  0  0  0  0  0  0  0  0
   -1.7044   -5.8218   33.0102 N   0  0  0  0  0  0  0  0  0  0  0  0
   -0.7375   -4.8506   33.3763 N   0  0  0  0  0  0  0  0  0  0  0  0
    0.4393   -5.5293   33.8049 N   0  0  0  0  0  0  0  0  0  0  0  0
   -1.4621   -0.9544   30.0446 C   0  0  0  0  0  0  0  0  0  0  0  0
   -1.9964   -1.5182   28.8865 C   0  0  0  0  0  0  0  0  0  0  0  0
   -2.2012   -0.7180   27.7650 C   0  0  0  0  0  0  0  0  0  0  0  0
   -1.8525    0.6243   27.8046 C   0  0  0  0  0  0  0  0  0  0  0  0
   -2.1096    1.3931   26.7103 O   0  0  0  0  0  0  0  0  0  0  0  0
   -1.2707    1.1779   28.9393 C   0  0  0  0  0  0  0  0  0  0  0  0
   -1.0858    0.3903   30.0768 C   0  0  0  0  0  0  0  0  0  0  0  0
    0.8421   -1.7458   30.7386 H   0  0  0  0  0  0  0  0  0  0  0  0
    1.7009   -1.8279   32.7585 H   0  0  0  0  0  0  0  0  0  0  0  0
    0.4486   -2.7869   33.4549 H   0  0  0  0  0  0  0  0  0  0  0  0
    2.3213   -3.9839   31.3431 H   0  0  0  0  0  0  0  0  0  0  0  0
    2.9473   -3.6107   32.8955 H   0  0  0  0  0  0  0  0  0  0  0  0
    2.4476   -5.4548   33.7159 H   0  0  0  0  0  0  0  0  0  0  0  0
    1.9914   -6.0031   31.1294 H   0  0  0  0  0  0  0  0  0  0  0  0
    0.7170   -8.1701   32.0252 H   0  0  0  0  0  0  0  0  0  0  0  0
   -0.0233   -4.6950   30.7718 H   0  0  0  0  0  0  0  0  0  0  0  0
   -0.8153   -5.0188   29.2684 H   0  0  0  0  0  0  0  0  0  0  0  0
    0.8729   -2.9840   28.9651 H   0  0  0  0  0  0  0  0  0  0  0  0
    2.9210   -2.4991   27.6830 H   0  0  0  0  0  0  0  0  0  0  0  0
    3.8625   -6.4827   27.3837 H   0  0  0  0  0  0  0  0  0  0  0  0
    1.9490   -7.1391   28.8279 H   0  0  0  0  0  0  0  0  0  0  0  0
    0.6812   -7.5907   34.2074 H   0  0  0  0  0  0  0  0  0  0  0  0
   -1.6420   -7.0149   34.7523 H   0  0  0  0  0  0  0  0  0  0  0  0
   -1.7747   -7.9367   33.2326 H   0  0  0  0  0  0  0  0  0  0  0  0
   -1.7030   -5.9725   32.0010 H   0  0  0  0  0  0  0  0  0  0  0  0
   -1.1421   -4.2943   34.1498 H   0  0  0  0  0  0  0  0  0  0  0  0
   -2.2852   -2.5636   28.8511 H   0  0  0  0  0  0  0  0  0  0  0  0
   -2.6474   -1.1387   26.8664 H   0  0  0  0  0  0  0  0  0  0  0  0
   -2.3063    2.2987   27.0152 H   0  0  0  0  0  0  0  0  0  0  0  0
   -0.9727    2.2222   28.9412 H   0  0  0  0  0  0  0  0  0  0  0  0
   -0.6634    0.8316   30.9759 H   0  0  0  0  0  0  0  0  0  0  0  0
  1  2  2  0
  2  3  2  0
  2  4  1  0
  4  5  1  0
  5  6  1  0
  6  7  1  0
  7  8  1  0
  8  9  1  0
  9 10  1  0
 10 11  1  0
 11 12  1  0
 12 13  2  0
 13 14  1  0
 14 15  2  0
 15 16  1  0
 16 17  2  0
  9 18  1  0
 18 19  1  0
 19 20  1  0
 20 21  1  0
 21 22  1  0
  2 23  1  0
 23 24  2  0
 24 25  1  0
 25 26  2  0
 26 27  1  0
 26 28  1  0
 28 29  2  0
 22  7  1  0
 29 23  1  0
 17 12  1  0
 22 18  1  0
  4 30  1  0
  5 31  1  0
  5 32  1  0
  6 33  1  0
  6 34  1  0
  7 35  1  0
  8 36  1  0
  9 37  1  0
 11 38  1  0
 11 39  1  0
 13 40  1  0
 14 41  1  0
 16 42  1  0
 17 43  1  0
 18 44  1  0
 19 45  1  0
 19 46  1  0
 20 47  1  0
 21 48  1  0
 24 49  1  0
 25 50  1  0
 27 51  1  0
 28 52  1  0
 29 53  1  0
M  END
>  <Energy>  (862) 
52.023543715222047

>  <compound_id>  (862) 
2899

>  <target_id>  (862) 
1

>  <reference_id>  (862) 
189

>  <inspiration_ids>  (862) 
[189, 40]

>  <energy_score>  (862) 
-45.03277456396535

>  <distance_score>  (862) 
1.5294506558715673

>  <path>  (862) 
/opt/xchem-fragalysis-2/maxwin/BulkDock/SCRATCH/505736/C2899-P189/C2899-P189.minimised.mol

>  <scratch_subdir>  (862) 
/opt/xchem-fragalysis-2/maxwin/BulkDock/SCRATCH/505736/C2899-P189

>  <fragmenstein_runtime>  (862) 
5.154522895812988

>  <fragmenstein_outcome>  (862) 
too moved

>  <fragmenstein_mode>  (862) 
expansion

>  <fragmenstein_error>  (862) 


$$$$
C2899-P40
     RDKit          3D

 53 56  0  0  0  0  0  0  0  0999 V2000
   -1.6498   -3.1275   31.5251 O   0  0  0  0  0  0  0  0  0  0  0  0
   -1.1274   -1.7835   31.6724 S   0  0  0  0  0  0  0  0  0  0  0  0
   -1.6846   -0.8597   32.6356 O   0  0  0  0  0  0  0  0  0  0  0  0
    0.5217   -1.8118   31.9784 N   0  0  0  0  0  0  0  0  0  0  0  0
    1.2853   -3.0377   31.7852 C   0  0  0  0  0  0  0  0  0  0  0  0
    1.2548   -3.8223   33.0880 C   0  0  0  0  0  0  0  0  0  0  0  0
    1.1592   -5.3235   32.8995 C   0  0  0  0  0  0  0  0  0  0  0  0
    0.0576   -5.6434   32.0196 N   0  0  0  0  0  0  0  0  0  0  0  0
    0.0100   -7.0722   32.1478 C   0  0  0  0  0  0  0  0  0  0  0  0
   -1.1341   -7.6837   30.9382 S   0  0  0  0  0  0  0  0  0  0  0  0
    0.0055   -7.6608   29.4984 C   0  0  0  0  0  0  0  0  0  0  0  0
    0.8149   -6.4405   29.0515 C   0  0  0  0  0  0  0  0  0  0  0  0
    0.3547   -5.1274   29.1492 C   0  0  0  0  0  0  0  0  0  0  0  0
    1.0248   -4.0927   28.4943 C   0  0  0  0  0  0  0  0  0  0  0  0
    2.1404   -4.2599   27.7631 N   0  0  0  0  0  0  0  0  0  0  0  0
    2.5874   -5.5125   27.6527 C   0  0  0  0  0  0  0  0  0  0  0  0
    1.9594   -6.5996   28.2488 C   0  0  0  0  0  0  0  0  0  0  0  0
    0.0882   -7.3069   33.6484 C   0  0  0  0  0  0  0  0  0  0  0  0
   -1.1601   -7.2274   34.4833 C   0  0  0  0  0  0  0  0  0  0  0  0
   -1.1502   -5.9083   35.0937 N   0  0  0  0  0  0  0  0  0  0  0  0
    0.1967   -5.4785   35.0920 N   0  0  0  0  0  0  0  0  0  0  0  0
    0.9619   -6.1742   34.0975 N   0  0  0  0  0  0  0  0  0  0  0  0
   -1.1492   -0.9632   30.1068 C   0  0  0  0  0  0  0  0  0  0  0  0
   -1.6978   -1.5812   28.9907 C   0  0  0  0  0  0  0  0  0  0  0  0
   -1.8481   -0.8528   27.8114 C   0  0  0  0  0  0  0  0  0  0  0  0
   -1.4440    0.4742   27.7576 C   0  0  0  0  0  0  0  0  0  0  0  0
   -1.7198    1.1915   26.6335 O   0  0  0  0  0  0  0  0  0  0  0  0
   -0.8087    1.0657   28.8403 C   0  0  0  0  0  0  0  0  0  0  0  0
   -0.6663    0.3464   30.0273 C   0  0  0  0  0  0  0  0  0  0  0  0
    0.7684   -1.2389   32.7862 H   0  0  0  0  0  0  0  0  0  0  0  0
    0.8808   -3.5726   30.9458 H   0  0  0  0  0  0  0  0  0  0  0  0
    2.3169   -2.7745   31.5292 H   0  0  0  0  0  0  0  0  0  0  0  0
    2.1528   -3.5823   33.6728 H   0  0  0  0  0  0  0  0  0  0  0  0
    0.4106   -3.4675   33.6941 H   0  0  0  0  0  0  0  0  0  0  0  0
    2.0980   -5.6377   32.4259 H   0  0  0  0  0  0  0  0  0  0  0  0
   -0.7848   -5.2391   32.4345 H   0  0  0  0  0  0  0  0  0  0  0  0
    0.9444   -7.4593   31.7776 H   0  0  0  0  0  0  0  0  0  0  0  0
   -0.6042   -7.9619   28.6521 H   0  0  0  0  0  0  0  0  0  0  0  0
    0.6901   -8.4889   29.6574 H   0  0  0  0  0  0  0  0  0  0  0  0
   -0.5651   -4.8847   29.6683 H   0  0  0  0  0  0  0  0  0  0  0  0
    0.6533   -3.0723   28.5293 H   0  0  0  0  0  0  0  0  0  0  0  0
    3.4646   -5.6422   27.0232 H   0  0  0  0  0  0  0  0  0  0  0  0
    2.3440   -7.5552   27.9406 H   0  0  0  0  0  0  0  0  0  0  0  0
    0.5982   -8.2424   33.8725 H   0  0  0  0  0  0  0  0  0  0  0  0
   -1.1196   -7.9646   35.2934 H   0  0  0  0  0  0  0  0  0  0  0  0
   -2.0594   -7.4233   33.9095 H   0  0  0  0  0  0  0  0  0  0  0  0
   -1.7579   -5.2455   34.5977 H   0  0  0  0  0  0  0  0  0  0  0  0
    0.6095   -5.6133   36.0249 H   0  0  0  0  0  0  0  0  0  0  0  0
   -2.0532   -2.6044   29.0319 H   0  0  0  0  0  0  0  0  0  0  0  0
   -2.3204   -1.3088   26.9448 H   0  0  0  0  0  0  0  0  0  0  0  0
   -1.8236    2.1259   26.8866 H   0  0  0  0  0  0  0  0  0  0  0  0
   -0.4584    2.0927   28.7829 H   0  0  0  0  0  0  0  0  0  0  0  0
   -0.2134    0.8240   30.8923 H   0  0  0  0  0  0  0  0  0  0  0  0
  1  2  2  0
  2  3  2  0
  2  4  1  0
  4  5  1  0
  5  6  1  0
  6  7  1  0
  7  8  1  0
  8  9  1  0
  9 10  1  0
 10 11  1  0
 11 12  1  0
 12 13  2  0
 13 14  1  0
 14 15  2  0
 15 16  1  0
 16 17  2  0
  9 18  1  0
 18 19  1  0
 19 20  1  0
 20 21  1  0
 21 22  1  0
  2 23  1  0
 23 24  2  0
 24 25  1  0
 25 26  2  0
 26 27  1  0
 26 28  1  0
 28 29  2  0
 22  7  1  0
 29 23  1  0
 17 12  1  0
 22 18  1  0
  4 30  1  0
  5 31  1  0
  5 32  1  0
  6 33  1  0
  6 34  1  0
  7 35  1  0
  8 36  1  0
  9 37  1  0
 11 38  1  0
 11 39  1  0
 13 40  1  0
 14 41  1  0
 16 42  1  0
 17 43  1  0
 18 44  1  0
 19 45  1  0
 19 46  1  0
 20 47  1  0
 21 48  1  0
 24 49  1  0
 25 50  1  0
 27 51  1  0
 28 52  1  0
 29 53  1  0
M  END
>  <Energy>  (863) 
29.267368171041003

>  <compound_id>  (863) 
2899

>  <target_id>  (863) 
1

>  <reference_id>  (863) 
40

>  <inspiration_ids>  (863) 
[189, 40]

>  <energy_score>  (863) 
-67.78895010814728

>  <distance_score>  (863) 
1.4784506503794812

>  <path>  (863) 
/opt/xchem-fragalysis-2/maxwin/BulkDock/SCRATCH/505736/C2899-P40/C2899-P40.minimised.mol

>  <scratch_subdir>  (863) 
/opt/xchem-fragalysis-2/maxwin/BulkDock/SCRATCH/505736/C2899-P40

>  <fragmenstein_runtime>  (863) 
5.848957061767578

>  <fragmenstein_outcome>  (863) 
too moved

>  <fragmenstein_mode>  (863) 
expansion

>  <fragmenstein_error>  (863) 


$$$$
C2921-P189
     RDKit          3D

 48 52  0  0  0  0  0  0  0  0999 V2000
   -0.8428   -2.6719   35.7550 O   0  0  0  0  0  0  0  0  0  0  0  0
    0.0742   -3.4757   35.8336 C   0  0  0  0  0  0  0  0  0  0  0  0
   -0.2058   -4.7948   35.9628 N   0  0  0  0  0  0  0  0  0  0  0  0
    0.7515   -5.7322   35.7266 C   0  0  0  0  0  0  0  0  0  0  0  0
   -0.0170   -7.2355   35.3682 S   0  0  0  0  0  0  0  0  0  0  0  0
   -0.1573   -6.9491   33.6405 C   0  0  0  0  0  0  0  0  0  0  0  0
   -0.9486   -7.7990   32.9702 C   0  0  0  0  0  0  0  0  0  0  0  0
   -0.7977   -7.8829   31.6121 N   0  0  0  0  0  0  0  0  0  0  0  0
   -1.2201   -8.8230   30.7549 N   0  0  0  0  0  0  0  0  0  0  0  0
   -0.3720   -8.6512   29.7363 C   0  0  0  0  0  0  0  0  0  0  0  0
    0.3786   -7.5181   29.7724 N   0  0  0  0  0  0  0  0  0  0  0  0
    0.0799   -7.0601   30.9610 C   0  0  0  0  0  0  0  0  0  0  0  0
    0.7126   -6.0145   31.6925 C   0  0  0  0  0  0  0  0  0  0  0  0
    1.5222   -4.9854   30.9414 C   0  0  0  0  0  0  0  0  0  0  0  0
    0.6259   -3.8737   30.4060 C   0  0  0  0  0  0  0  0  0  0  0  0
    0.2551   -2.9864   31.5040 N   0  0  0  0  0  0  0  0  0  0  0  0
   -1.2677   -2.3111   31.6056 S   0  0  0  0  0  0  0  0  0  0  0  0
   -2.2313   -3.3860   31.4658 O   0  0  0  0  0  0  0  0  0  0  0  0
   -1.2528   -1.4450   32.7610 O   0  0  0  0  0  0  0  0  0  0  0  0
   -1.3450   -1.2631   30.1748 C   0  0  0  0  0  0  0  0  0  0  0  0
   -1.9345   -1.7321   29.0037 C   0  0  0  0  0  0  0  0  0  0  0  0
   -2.1186   -0.8669   27.9243 C   0  0  0  0  0  0  0  0  0  0  0  0
   -1.7107    0.4562   28.0218 C   0  0  0  0  0  0  0  0  0  0  0  0
   -1.9561    1.2868   26.9698 O   0  0  0  0  0  0  0  0  0  0  0  0
   -1.0851    0.9230   29.1725 C   0  0  0  0  0  0  0  0  0  0  0  0
   -0.9116    0.0651   30.2627 C   0  0  0  0  0  0  0  0  0  0  0  0
    0.6019   -5.9757   32.9900 N   0  0  0  0  0  0  0  0  0  0  0  0
    2.0381   -5.5700   35.6407 N   0  0  0  0  0  0  0  0  0  0  0  0
    2.4033   -4.2185   35.7213 C   0  0  0  0  0  0  0  0  0  0  0  0
    3.7310   -3.7448   35.7144 C   0  0  0  0  0  0  0  0  0  0  0  0
    3.7557   -2.3669   35.8028 C   0  0  0  0  0  0  0  0  0  0  0  0
    2.1772   -1.6850   35.8387 S   0  0  0  0  0  0  0  0  0  0  0  0
    1.4758   -3.2152   35.7848 C   0  0  0  0  0  0  0  0  0  0  0  0
   -1.1805   -5.0323   35.8545 H   0  0  0  0  0  0  0  0  0  0  0  0
   -1.5784   -8.5467   33.4227 H   0  0  0  0  0  0  0  0  0  0  0  0
   -0.3263   -9.3569   28.9188 H   0  0  0  0  0  0  0  0  0  0  0  0
    2.2931   -4.5829   31.6095 H   0  0  0  0  0  0  0  0  0  0  0  0
    2.0364   -5.4748   30.1067 H   0  0  0  0  0  0  0  0  0  0  0  0
   -0.2575   -4.2931   29.9148 H   0  0  0  0  0  0  0  0  0  0  0  0
    1.1793   -3.2860   29.6658 H   0  0  0  0  0  0  0  0  0  0  0  0
    0.9710   -2.4980   32.0416 H   0  0  0  0  0  0  0  0  0  0  0  0
   -2.2834   -2.7547   28.9286 H   0  0  0  0  0  0  0  0  0  0  0  0
   -2.5991   -1.2220   27.0149 H   0  0  0  0  0  0  0  0  0  0  0  0
   -2.0890    2.1878   27.3168 H   0  0  0  0  0  0  0  0  0  0  0  0
   -0.7373    1.9496   29.2286 H   0  0  0  0  0  0  0  0  0  0  0  0
   -0.4567    0.4421   31.1756 H   0  0  0  0  0  0  0  0  0  0  0  0
    4.6161   -4.3656   35.6685 H   0  0  0  0  0  0  0  0  0  0  0  0
    4.6222   -1.7203   35.8359 H   0  0  0  0  0  0  0  0  0  0  0  0
  1  2  2  0
  2  3  1  0
  3  4  1  0
  4  5  1  0
  5  6  1  0
  6  7  2  0
  7  8  1  0
  8  9  1  0
  9 10  2  0
 10 11  1  0
 11 12  2  0
 12 13  1  0
 13 14  1  0
 14 15  1  0
 15 16  1  0
 16 17  1  0
 17 18  2  0
 17 19  2  0
 17 20  1  0
 20 21  2  0
 21 22  1  0
 22 23  2  0
 23 24  1  0
 23 25  1  0
 25 26  2  0
 13 27  2  0
  4 28  2  0
 28 29  1  0
 29 30  1  0
 30 31  2  0
 31 32  1  0
 32 33  1  0
 33  2  1  0
 27  6  1  0
 33 29  2  0
 12  8  1  0
 26 20  1  0
  3 34  1  0
  7 35  1  0
 10 36  1  0
 14 37  1  0
 14 38  1  0
 15 39  1  0
 15 40  1  0
 16 41  1  0
 21 42  1  0
 22 43  1  0
 24 44  1  0
 25 45  1  0
 26 46  1  0
 30 47  1  0
 31 48  1  0
M  END
>  <Energy>  (864) 
-116.56761401609359

>  <compound_id>  (864) 
2921

>  <target_id>  (864) 
1

>  <reference_id>  (864) 
189

>  <inspiration_ids>  (864) 
[189, 41]

>  <energy_score>  (864) 
-67.62847222915283

>  <distance_score>  (864) 
0.9772110812210268

>  <path>  (864) 
/opt/xchem-fragalysis-2/maxwin/BulkDock/SCRATCH/505736/C2921-P189/C2921-P189.minimised.mol

>  <scratch_subdir>  (864) 
/opt/xchem-fragalysis-2/maxwin/BulkDock/SCRATCH/505736/C2921-P189

>  <fragmenstein_runtime>  (864) 
4.44001841545105

>  <fragmenstein_outcome>  (864) 
acceptable

>  <fragmenstein_mode>  (864) 
expansion

>  <fragmenstein_error>  (864) 


$$$$
C2921-P41
     RDKit          3D

 48 52  0  0  0  0  0  0  0  0999 V2000
   -0.8503   -2.9722   35.8096 O   0  0  0  0  0  0  0  0  0  0  0  0
    0.1626   -3.6446   35.9392 C   0  0  0  0  0  0  0  0  0  0  0  0
    0.0507   -4.9748   36.1806 N   0  0  0  0  0  0  0  0  0  0  0  0
    1.0796   -5.8036   35.8553 C   0  0  0  0  0  0  0  0  0  0  0  0
    0.4388   -7.3584   35.4589 S   0  0  0  0  0  0  0  0  0  0  0  0
    0.1429   -6.9762   33.7648 C   0  0  0  0  0  0  0  0  0  0  0  0
   -0.7852   -7.7122   33.1327 C   0  0  0  0  0  0  0  0  0  0  0  0
   -0.7575   -7.7395   31.7607 N   0  0  0  0  0  0  0  0  0  0  0  0
   -1.3223   -8.6012   30.8987 N   0  0  0  0  0  0  0  0  0  0  0  0
   -0.4928   -8.4910   29.8525 C   0  0  0  0  0  0  0  0  0  0  0  0
    0.3673   -7.4392   29.8793 N   0  0  0  0  0  0  0  0  0  0  0  0
    0.1495   -6.9753   31.0800 C   0  0  0  0  0  0  0  0  0  0  0  0
    0.9131   -6.0114   31.7925 C   0  0  0  0  0  0  0  0  0  0  0  0
    1.7212   -5.0050   31.0132 C   0  0  0  0  0  0  0  0  0  0  0  0
    0.8237   -3.8970   30.4735 C   0  0  0  0  0  0  0  0  0  0  0  0
    0.4318   -3.0199   31.5753 N   0  0  0  0  0  0  0  0  0  0  0  0
   -1.0761   -2.2994   31.6034 S   0  0  0  0  0  0  0  0  0  0  0  0
   -2.0596   -3.3557   31.4602 O   0  0  0  0  0  0  0  0  0  0  0  0
   -1.0806   -1.4010   32.7345 O   0  0  0  0  0  0  0  0  0  0  0  0
   -1.0658   -1.3002   30.1368 C   0  0  0  0  0  0  0  0  0  0  0  0
   -1.5604   -1.8202   28.9446 C   0  0  0  0  0  0  0  0  0  0  0  0
   -1.7031   -0.9935   27.8297 C   0  0  0  0  0  0  0  0  0  0  0  0
   -1.3397    0.3423   27.9106 C   0  0  0  0  0  0  0  0  0  0  0  0
   -1.5760    1.1428   26.8336 O   0  0  0  0  0  0  0  0  0  0  0  0
   -0.7754    0.8520   29.0743 C   0  0  0  0  0  0  0  0  0  0  0  0
   -0.6525    0.0336   30.2024 C   0  0  0  0  0  0  0  0  0  0  0  0
    0.9180   -6.0306   33.0942 N   0  0  0  0  0  0  0  0  0  0  0  0
    2.3339   -5.5080   35.6940 N   0  0  0  0  0  0  0  0  0  0  0  0
    2.5532   -4.1239   35.7529 C   0  0  0  0  0  0  0  0  0  0  0  0
    3.8186   -3.5083   35.6873 C   0  0  0  0  0  0  0  0  0  0  0  0
    3.6916   -2.1342   35.7416 C   0  0  0  0  0  0  0  0  0  0  0  0
    2.0482   -1.6288   35.8116 S   0  0  0  0  0  0  0  0  0  0  0  0
    1.5219   -3.2272   35.8265 C   0  0  0  0  0  0  0  0  0  0  0  0
   -0.8918   -5.3255   36.1299 H   0  0  0  0  0  0  0  0  0  0  0  0
   -1.4374   -8.4263   33.6044 H   0  0  0  0  0  0  0  0  0  0  0  0
   -0.5194   -9.1998   29.0343 H   0  0  0  0  0  0  0  0  0  0  0  0
    2.5046   -4.5955   31.6619 H   0  0  0  0  0  0  0  0  0  0  0  0
    2.2176   -5.5157   30.1804 H   0  0  0  0  0  0  0  0  0  0  0  0
   -0.0513   -4.3217   29.9723 H   0  0  0  0  0  0  0  0  0  0  0  0
    1.3819   -3.3024   29.7426 H   0  0  0  0  0  0  0  0  0  0  0  0
    1.1434   -2.5076   32.0973 H   0  0  0  0  0  0  0  0  0  0  0  0
   -1.8778   -2.8539   28.8824 H   0  0  0  0  0  0  0  0  0  0  0  0
   -2.1328   -1.3858   26.9107 H   0  0  0  0  0  0  0  0  0  0  0  0
   -1.7383    2.0467   27.1587 H   0  0  0  0  0  0  0  0  0  0  0  0
   -0.4554    1.8895   29.1211 H   0  0  0  0  0  0  0  0  0  0  0  0
   -0.2594    0.4501   31.1268 H   0  0  0  0  0  0  0  0  0  0  0  0
    4.7653   -4.0280   35.6200 H   0  0  0  0  0  0  0  0  0  0  0  0
    4.4808   -1.3945   35.7268 H   0  0  0  0  0  0  0  0  0  0  0  0
  1  2  2  0
  2  3  1  0
  3  4  1  0
  4  5  1  0
  5  6  1  0
  6  7  2  0
  7  8  1  0
  8  9  1  0
  9 10  2  0
 10 11  1  0
 11 12  2  0
 12 13  1  0
 13 14  1  0
 14 15  1  0
 15 16  1  0
 16 17  1  0
 17 18  2  0
 17 19  2  0
 17 20  1  0
 20 21  2  0
 21 22  1  0
 22 23  2  0
 23 24  1  0
 23 25  1  0
 25 26  2  0
 13 27  2  0
  4 28  2  0
 28 29  1  0
 29 30  1  0
 30 31  2  0
 31 32  1  0
 32 33  1  0
 33  2  1  0
 27  6  1  0
 33 29  2  0
 12  8  1  0
 26 20  1  0
  3 34  1  0
  7 35  1  0
 10 36  1  0
 14 37  1  0
 14 38  1  0
 15 39  1  0
 15 40  1  0
 16 41  1  0
 21 42  1  0
 22 43  1  0
 24 44  1  0
 25 45  1  0
 26 46  1  0
 30 47  1  0
 31 48  1  0
M  END
>  <Energy>  (865) 
-112.26608459976535

>  <compound_id>  (865) 
2921

>  <target_id>  (865) 
1

>  <reference_id>  (865) 
41

>  <inspiration_ids>  (865) 
[189, 41]

>  <energy_score>  (865) 
-63.3269428128245

>  <distance_score>  (865) 
0.964944454476577

>  <path>  (865) 
/opt/xchem-fragalysis-2/maxwin/BulkDock/SCRATCH/505736/C2921-P41/C2921-P41.minimised.mol

>  <scratch_subdir>  (865) 
/opt/xchem-fragalysis-2/maxwin/BulkDock/SCRATCH/505736/C2921-P41

>  <fragmenstein_runtime>  (865) 
4.6131017208099365

>  <fragmenstein_outcome>  (865) 
acceptable

>  <fragmenstein_mode>  (865) 
expansion

>  <fragmenstein_error>  (865) 


$$$$
C2921-P189
     RDKit          3D

 48 52  0  0  0  0  0  0  0  0999 V2000
   -3.5933   -1.3127   26.3369 O   0  0  0  0  0  0  0  0  0  0  0  0
   -2.9055   -0.8189   27.2214 C   0  0  0  0  0  0  0  0  0  0  0  0
   -2.4822   -1.6148   28.2739 N   0  0  0  0  0  0  0  0  0  0  0  0
   -2.1943   -1.0695   29.4975 C   0  0  0  0  0  0  0  0  0  0  0  0
   -2.4354   -2.1326   30.8983 S   0  0  0  0  0  0  0  0  0  0  0  0
   -1.4782   -3.6188   30.9499 C   0  0  0  0  0  0  0  0  0  0  0  0
   -1.5435   -4.3261   32.1078 C   0  0  0  0  0  0  0  0  0  0  0  0
   -1.0147   -5.6026   32.1768 N   0  0  0  0  0  0  0  0  0  0  0  0
   -1.2218   -6.6212   33.0280 N   0  0  0  0  0  0  0  0  0  0  0  0
   -0.5811   -7.6220   32.4292 C   0  0  0  0  0  0  0  0  0  0  0  0
    0.1246   -7.2924   31.3055 N   0  0  0  0  0  0  0  0  0  0  0  0
   -0.2047   -6.0334   31.1714 C   0  0  0  0  0  0  0  0  0  0  0  0
    0.1491   -5.0558   30.1970 C   0  0  0  0  0  0  0  0  0  0  0  0
    1.5841   -4.9528   29.7817 C   0  0  0  0  0  0  0  0  0  0  0  0
    2.2688   -3.9420   30.7438 C   0  0  0  0  0  0  0  0  0  0  0  0
    1.3559   -3.4855   31.8317 N   0  0  0  0  0  0  0  0  0  0  0  0
    1.0499   -1.8511   32.1601 S   0  0  0  0  0  0  0  0  0  0  0  0
    2.2534   -1.4696   32.8456 O   0  0  0  0  0  0  0  0  0  0  0  0
   -0.2010   -1.7554   32.8745 O   0  0  0  0  0  0  0  0  0  0  0  0
    0.9787   -0.8805   30.6931 C   0  0  0  0  0  0  0  0  0  0  0  0
    1.1139    0.4980   30.8369 C   0  0  0  0  0  0  0  0  0  0  0  0
    1.1432    1.3308   29.7153 C   0  0  0  0  0  0  0  0  0  0  0  0
    0.9774    0.7946   28.4551 C   0  0  0  0  0  0  0  0  0  0  0  0
    0.8657    1.6159   27.3788 O   0  0  0  0  0  0  0  0  0  0  0  0
    0.8258   -0.5615   28.3102 C   0  0  0  0  0  0  0  0  0  0  0  0
    0.8551   -1.3982   29.4169 C   0  0  0  0  0  0  0  0  0  0  0  0
   -0.6259   -4.0332   29.9381 N   0  0  0  0  0  0  0  0  0  0  0  0
   -1.9615    0.2036   29.7028 N   0  0  0  0  0  0  0  0  0  0  0  0
   -2.0681    1.0361   28.5497 C   0  0  0  0  0  0  0  0  0  0  0  0
   -1.6497    2.3854   28.4112 C   0  0  0  0  0  0  0  0  0  0  0  0
   -2.0481    2.9510   27.2189 C   0  0  0  0  0  0  0  0  0  0  0  0
   -2.8356    1.8080   26.2446 S   0  0  0  0  0  0  0  0  0  0  0  0
   -2.5790    0.5694   27.3757 C   0  0  0  0  0  0  0  0  0  0  0  0
   -2.7644   -2.5867   28.1851 H   0  0  0  0  0  0  0  0  0  0  0  0
   -2.0651   -3.9726   32.9847 H   0  0  0  0  0  0  0  0  0  0  0  0
   -0.6436   -8.6176   32.8371 H   0  0  0  0  0  0  0  0  0  0  0  0
    2.0802   -5.9248   29.8244 H   0  0  0  0  0  0  0  0  0  0  0  0
    1.6507   -4.5921   28.7501 H   0  0  0  0  0  0  0  0  0  0  0  0
    3.1219   -4.4429   31.2188 H   0  0  0  0  0  0  0  0  0  0  0  0
    2.7067   -3.1087   30.1900 H   0  0  0  0  0  0  0  0  0  0  0  0
    1.7171   -3.8312   32.7295 H   0  0  0  0  0  0  0  0  0  0  0  0
    1.2239    0.9412   31.8252 H   0  0  0  0  0  0  0  0  0  0  0  0
    1.2606    2.4040   29.8387 H   0  0  0  0  0  0  0  0  0  0  0  0
    0.1515    1.2554   26.8266 H   0  0  0  0  0  0  0  0  0  0  0  0
    0.6494   -0.9893   27.3428 H   0  0  0  0  0  0  0  0  0  0  0  0
    0.7479   -2.4456   29.2150 H   0  0  0  0  0  0  0  0  0  0  0  0
   -1.0512    2.9506   29.0997 H   0  0  0  0  0  0  0  0  0  0  0  0
   -1.9026    3.9700   26.8849 H   0  0  0  0  0  0  0  0  0  0  0  0
  1  2  2  0
  2  3  1  0
  3  4  1  0
  4  5  1  0
  5  6  1  0
  6  7  2  0
  7  8  1  0
  8  9  1  0
  9 10  2  0
 10 11  1  0
 11 12  2  0
 12 13  1  0
 13 14  1  0
 14 15  1  0
 15 16  1  0
 16 17  1  0
 17 18  2  0
 17 19  2  0
 17 20  1  0
 20 21  2  0
 21 22  1  0
 22 23  2  0
 23 24  1  0
 23 25  1  0
 25 26  2  0
 13 27  2  0
  4 28  2  0
 28 29  1  0
 29 30  1  0
 30 31  2  0
 31 32  1  0
 32 33  1  0
 33  2  1  0
 27  6  1  0
 33 29  2  0
 12  8  1  0
 26 20  1  0
  3 34  1  0
  7 35  1  0
 10 36  1  0
 14 37  1  0
 14 38  1  0
 15 39  1  0
 15 40  1  0
 16 41  1  0
 21 42  1  0
 22 43  1  0
 24 44  1  0
 25 45  1  0
 26 46  1  0
 30 47  1  0
 31 48  1  0
M  END
>  <Energy>  (866) 
-45.671607504870465

>  <compound_id>  (866) 
2921

>  <target_id>  (866) 
1

>  <reference_id>  (866) 
189

>  <inspiration_ids>  (866) 
[189, 44]

>  <energy_score>  (866) 
4.894960555965639

>  <distance_score>  (866) 
2.9250106616732663

>  <path>  (866) 
/opt/xchem-fragalysis-2/maxwin/BulkDock/SCRATCH/505736/C2921-P189/C2921-P189.minimised.mol

>  <scratch_subdir>  (866) 
/opt/xchem-fragalysis-2/maxwin/BulkDock/SCRATCH/505736/C2921-P189

>  <fragmenstein_runtime>  (866) 
9.729332208633423

>  <fragmenstein_outcome>  (866) 
too moved

>  <fragmenstein_mode>  (866) 
expansion

>  <fragmenstein_error>  (866) 


$$$$
C2921-P44
     RDKit          3D

 48 52  0  0  0  0  0  0  0  0999 V2000
   -2.5910    1.1308   28.6615 O   0  0  0  0  0  0  0  0  0  0  0  0
   -1.8595    0.7722   29.5682 C   0  0  0  0  0  0  0  0  0  0  0  0
   -2.2221   -0.2127   30.4892 N   0  0  0  0  0  0  0  0  0  0  0  0
   -1.4510   -0.6151   31.5626 C   0  0  0  0  0  0  0  0  0  0  0  0
   -2.2618   -1.9056   32.5257 S   0  0  0  0  0  0  0  0  0  0  0  0
   -1.4089   -3.5305   32.5910 C   0  0  0  0  0  0  0  0  0  0  0  0
   -1.2095   -4.0804   33.8146 C   0  0  0  0  0  0  0  0  0  0  0  0
   -0.7459   -5.3809   33.9273 N   0  0  0  0  0  0  0  0  0  0  0  0
   -0.7053   -6.2347   34.9686 N   0  0  0  0  0  0  0  0  0  0  0  0
   -0.1939   -7.3388   34.4266 C   0  0  0  0  0  0  0  0  0  0  0  0
    0.1381   -7.2451   33.1065 N   0  0  0  0  0  0  0  0  0  0  0  0
   -0.2562   -6.0228   32.8335 C   0  0  0  0  0  0  0  0  0  0  0  0
   -0.2754   -5.3200   31.6001 C   0  0  0  0  0  0  0  0  0  0  0  0
    0.5928   -5.8819   30.5166 C   0  0  0  0  0  0  0  0  0  0  0  0
    1.1916   -4.8294   29.6141 C   0  0  0  0  0  0  0  0  0  0  0  0
    2.0576   -3.8750   30.3090 N   0  0  0  0  0  0  0  0  0  0  0  0
    1.5168   -2.3502   30.7456 S   0  0  0  0  0  0  0  0  0  0  0  0
    0.6786   -2.5061   31.8931 O   0  0  0  0  0  0  0  0  0  0  0  0
    2.6971   -1.5378   30.8998 O   0  0  0  0  0  0  0  0  0  0  0  0
    0.6387   -1.7831   29.3138 C   0  0  0  0  0  0  0  0  0  0  0  0
    1.2560   -0.8315   28.5088 C   0  0  0  0  0  0  0  0  0  0  0  0
    0.5372   -0.2005   27.5013 C   0  0  0  0  0  0  0  0  0  0  0  0
   -0.7777   -0.5505   27.2765 C   0  0  0  0  0  0  0  0  0  0  0  0
   -1.5156    0.1405   26.3657 O   0  0  0  0  0  0  0  0  0  0  0  0
   -1.3659   -1.5775   27.9857 C   0  0  0  0  0  0  0  0  0  0  0  0
   -0.6640   -2.1818   29.0218 C   0  0  0  0  0  0  0  0  0  0  0  0
   -1.0231   -4.2541   31.4398 N   0  0  0  0  0  0  0  0  0  0  0  0
   -0.3436   -0.0060   31.8833 N   0  0  0  0  0  0  0  0  0  0  0  0
    0.0715    1.0366   30.9961 C   0  0  0  0  0  0  0  0  0  0  0  0
    1.2363    1.8196   31.1488 C   0  0  0  0  0  0  0  0  0  0  0  0
    1.3591    2.7744   30.1544 C   0  0  0  0  0  0  0  0  0  0  0  0
    0.0521    2.7205   29.0317 S   0  0  0  0  0  0  0  0  0  0  0  0
   -0.6145    1.3937   29.8762 C   0  0  0  0  0  0  0  0  0  0  0  0
   -3.0781   -0.6943   30.2997 H   0  0  0  0  0  0  0  0  0  0  0  0
   -1.4925   -3.6014   34.7428 H   0  0  0  0  0  0  0  0  0  0  0  0
   -0.0599   -8.2345   35.0202 H   0  0  0  0  0  0  0  0  0  0  0  0
    1.4098   -6.4575   30.9673 H   0  0  0  0  0  0  0  0  0  0  0  0
   -0.0243   -6.5893   29.9586 H   0  0  0  0  0  0  0  0  0  0  0  0
    1.8398   -5.3378   28.8888 H   0  0  0  0  0  0  0  0  0  0  0  0
    0.4254   -4.3561   29.0119 H   0  0  0  0  0  0  0  0  0  0  0  0
    3.0361   -3.8368   30.0225 H   0  0  0  0  0  0  0  0  0  0  0  0
    2.2720   -0.4969   28.7083 H   0  0  0  0  0  0  0  0  0  0  0  0
    0.9909    0.6073   26.9374 H   0  0  0  0  0  0  0  0  0  0  0  0
   -1.8518   -0.5615   25.7627 H   0  0  0  0  0  0  0  0  0  0  0  0
   -2.3960   -1.8454   27.7774 H   0  0  0  0  0  0  0  0  0  0  0  0
   -1.1831   -2.9323   29.5975 H   0  0  0  0  0  0  0  0  0  0  0  0
    1.9535    1.7005   31.9513 H   0  0  0  0  0  0  0  0  0  0  0  0
    2.1407    3.5115   30.0326 H   0  0  0  0  0  0  0  0  0  0  0  0
  1  2  2  0
  2  3  1  0
  3  4  1  0
  4  5  1  0
  5  6  1  0
  6  7  2  0
  7  8  1  0
  8  9  1  0
  9 10  2  0
 10 11  1  0
 11 12  2  0
 12 13  1  0
 13 14  1  0
 14 15  1  0
 15 16  1  0
 16 17  1  0
 17 18  2  0
 17 19  2  0
 17 20  1  0
 20 21  2  0
 21 22  1  0
 22 23  2  0
 23 24  1  0
 23 25  1  0
 25 26  2  0
 13 27  2  0
  4 28  2  0
 28 29  1  0
 29 30  1  0
 30 31  2  0
 31 32  1  0
 32 33  1  0
 33  2  1  0
 27  6  1  0
 33 29  2  0
 12  8  1  0
 26 20  1  0
  3 34  1  0
  7 35  1  0
 10 36  1  0
 14 37  1  0
 14 38  1  0
 15 39  1  0
 15 40  1  0
 16 41  1  0
 21 42  1  0
 22 43  1  0
 24 44  1  0
 25 45  1  0
 26 46  1  0
 30 47  1  0
 31 48  1  0
M  END
>  <Energy>  (867) 
-54.74688070202027

>  <compound_id>  (867) 
2921

>  <target_id>  (867) 
1

>  <reference_id>  (867) 
44

>  <inspiration_ids>  (867) 
[189, 44]

>  <energy_score>  (867) 
-4.180312641186902

>  <distance_score>  (867) 
3.119288938365715

>  <path>  (867) 
/opt/xchem-fragalysis-2/maxwin/BulkDock/SCRATCH/505736/C2921-P44/C2921-P44.minimised.mol

>  <scratch_subdir>  (867) 
/opt/xchem-fragalysis-2/maxwin/BulkDock/SCRATCH/505736/C2921-P44

>  <fragmenstein_runtime>  (867) 
9.915870666503906

>  <fragmenstein_outcome>  (867) 
too moved

>  <fragmenstein_mode>  (867) 
expansion

>  <fragmenstein_error>  (867) 


$$$$
C2901-P189
     RDKit          3D

 54 57  0  0  0  0  0  0  0  0999 V2000
   -2.4574   -3.3256   31.1430 O   0  0  0  0  0  0  0  0  0  0  0  0
   -1.4083   -2.3361   31.0555 S   0  0  0  0  0  0  0  0  0  0  0  0
   -1.0015   -1.6043   32.2346 O   0  0  0  0  0  0  0  0  0  0  0  0
   -0.0131   -3.0407   30.3849 N   0  0  0  0  0  0  0  0  0  0  0  0
   -0.0978   -4.2644   29.5438 C   0  0  0  0  0  0  0  0  0  0  0  0
    1.2563   -5.0378   29.4887 C   0  0  0  0  0  0  0  0  0  0  0  0
    1.7726   -5.2747   30.8754 C   0  0  0  0  0  0  0  0  0  0  0  0
    0.8534   -5.7933   31.7804 N   0  0  0  0  0  0  0  0  0  0  0  0
    0.8675   -4.8881   32.7149 C   0  0  0  0  0  0  0  0  0  0  0  0
    0.0102   -4.9750   33.7118 O   0  0  0  0  0  0  0  0  0  0  0  0
    1.8679   -3.8084   32.4726 C   0  0  0  0  0  0  0  0  0  0  0  0
    1.8680   -2.4752   32.6821 C   0  0  0  0  0  0  0  0  0  0  0  0
    2.7381   -1.6059   31.7751 N   0  0  0  0  0  0  0  0  0  0  0  0
    1.9084   -0.2195   31.0658 S   0  0  0  0  0  0  0  0  0  0  0  0
    1.1903   -0.7655   29.9304 O   0  0  0  0  0  0  0  0  0  0  0  0
    1.2074    0.4439   32.1453 O   0  0  0  0  0  0  0  0  0  0  0  0
    2.9327    1.0611   30.3308 N   0  0  0  0  0  0  0  0  0  0  0  0
    2.0059    2.3053   30.0860 C   0  0  0  0  0  0  0  0  0  0  0  0
    2.6895    3.4957   29.3687 C   0  0  0  0  0  0  0  0  0  0  0  0
    3.2911    3.1390   28.0809 N   0  0  0  0  0  0  0  0  0  0  0  0
    4.2116    2.0177   28.3078 C   0  0  0  0  0  0  0  0  0  0  0  0
    3.5493    0.7626   28.9674 C   0  0  0  0  0  0  0  0  0  0  0  0
    3.5674   -2.3414   30.8974 C   0  0  0  0  0  0  0  0  0  0  0  0
    3.5495   -3.6162   30.6885 N   0  0  0  0  0  0  0  0  0  0  0  0
    2.6193   -4.3461   31.3680 C   0  0  0  0  0  0  0  0  0  0  0  0
   -1.7973   -1.1326   29.8131 C   0  0  0  0  0  0  0  0  0  0  0  0
   -2.2120   -1.5858   28.5710 C   0  0  0  0  0  0  0  0  0  0  0  0
   -2.4210   -0.6981   27.5224 C   0  0  0  0  0  0  0  0  0  0  0  0
   -2.1597    0.6448   27.7092 C   0  0  0  0  0  0  0  0  0  0  0  0
   -2.3434    1.4941   26.6615 O   0  0  0  0  0  0  0  0  0  0  0  0
   -1.7283    1.1121   28.9426 C   0  0  0  0  0  0  0  0  0  0  0  0
   -1.5816    0.2300   30.0184 C   0  0  0  0  0  0  0  0  0  0  0  0
    0.4979   -2.2935   29.8863 H   0  0  0  0  0  0  0  0  0  0  0  0
   -0.8319   -4.9367   29.9778 H   0  0  0  0  0  0  0  0  0  0  0  0
   -0.4055   -3.9879   28.5338 H   0  0  0  0  0  0  0  0  0  0  0  0
    1.1504   -6.0144   29.0237 H   0  0  0  0  0  0  0  0  0  0  0  0
    1.9631   -4.4711   28.8712 H   0  0  0  0  0  0  0  0  0  0  0  0
   -0.5919   -5.7212   33.5571 H   0  0  0  0  0  0  0  0  0  0  0  0
    1.1549   -1.9609   33.3174 H   0  0  0  0  0  0  0  0  0  0  0  0
    1.6548    2.6604   31.0610 H   0  0  0  0  0  0  0  0  0  0  0  0
    1.1428    1.9817   29.4930 H   0  0  0  0  0  0  0  0  0  0  0  0
    1.9459    4.2833   29.2045 H   0  0  0  0  0  0  0  0  0  0  0  0
    3.4608    3.9148   30.0272 H   0  0  0  0  0  0  0  0  0  0  0  0
    3.8035    3.9400   27.7126 H   0  0  0  0  0  0  0  0  0  0  0  0
    5.0500    2.3502   28.9328 H   0  0  0  0  0  0  0  0  0  0  0  0
    4.6318    1.7149   27.3431 H   0  0  0  0  0  0  0  0  0  0  0  0
    4.3255    0.0056   29.0979 H   0  0  0  0  0  0  0  0  0  0  0  0
    2.7827    0.3682   28.2910 H   0  0  0  0  0  0  0  0  0  0  0  0
    4.2774   -1.7184   30.3369 H   0  0  0  0  0  0  0  0  0  0  0  0
   -2.3626   -2.6382   28.4205 H   0  0  0  0  0  0  0  0  0  0  0  0
   -2.7669   -1.0614   26.5593 H   0  0  0  0  0  0  0  0  0  0  0  0
   -2.5484    2.3774   27.0212 H   0  0  0  0  0  0  0  0  0  0  0  0
   -1.4901    2.1621   29.0509 H   0  0  0  0  0  0  0  0  0  0  0  0
   -1.2389    0.6010   30.9802 H   0  0  0  0  0  0  0  0  0  0  0  0
  1  2  2  0
  2  3  2  0
  2  4  1  0
  4  5  1  0
  5  6  1  0
  6  7  1  0
  7  8  1  0
  8  9  2  0
  9 10  1  0
  9 11  1  0
 11 12  2  0
 12 13  1  0
 13 14  1  0
 14 15  2  0
 14 16  2  0
 14 17  1  0
 17 18  1  0
 18 19  1  0
 19 20  1  0
 20 21  1  0
 21 22  1  0
 13 23  1  0
 23 24  2  0
 24 25  1  0
  2 26  1  0
 26 27  2  0
 27 28  1  0
 28 29  2  0
 29 30  1  0
 29 31  1  0
 31 32  2  0
 25  7  2  0
 32 26  1  0
 25 11  1  0
 22 17  1  0
  4 33  1  0
  5 34  1  0
  5 35  1  0
  6 36  1  0
  6 37  1  0
 10 38  1  0
 12 39  1  0
 18 40  1  0
 18 41  1  0
 19 42  1  0
 19 43  1  0
 20 44  1  0
 21 45  1  0
 21 46  1  0
 22 47  1  0
 22 48  1  0
 23 49  1  0
 27 50  1  0
 28 51  1  0
 30 52  1  0
 31 53  1  0
 32 54  1  0
M  END
>  <Energy>  (868) 
-35.22702230078567

>  <compound_id>  (868) 
2901

>  <target_id>  (868) 
1

>  <reference_id>  (868) 
189

>  <inspiration_ids>  (868) 
[189, 53]

>  <energy_score>  (868) 
-19.79194255575851

>  <distance_score>  (868) 
2.777099123901583

>  <path>  (868) 
/opt/xchem-fragalysis-2/maxwin/BulkDock/SCRATCH/505736/C2901-P189/C2901-P189.minimised.mol

>  <scratch_subdir>  (868) 
/opt/xchem-fragalysis-2/maxwin/BulkDock/SCRATCH/505736/C2901-P189

>  <fragmenstein_runtime>  (868) 
8.024153470993042

>  <fragmenstein_outcome>  (868) 
too moved

>  <fragmenstein_mode>  (868) 
expansion

>  <fragmenstein_error>  (868) 


$$$$
C2901-P53
     RDKit          3D

 54 57  0  0  0  0  0  0  0  0999 V2000
   -2.2991   -3.2631   31.1059 O   0  0  0  0  0  0  0  0  0  0  0  0
   -1.2336   -2.2938   31.0151 S   0  0  0  0  0  0  0  0  0  0  0  0
   -0.8655   -1.5334   32.1887 O   0  0  0  0  0  0  0  0  0  0  0  0
    0.1736   -3.0432   30.4323 N   0  0  0  0  0  0  0  0  0  0  0  0
    0.1332   -4.2667   29.5857 C   0  0  0  0  0  0  0  0  0  0  0  0
    1.5021   -5.0184   29.5876 C   0  0  0  0  0  0  0  0  0  0  0  0
    1.9578   -5.2553   30.9964 C   0  0  0  0  0  0  0  0  0  0  0  0
    0.9977   -5.7720   31.8597 N   0  0  0  0  0  0  0  0  0  0  0  0
    0.9624   -4.8610   32.7874 C   0  0  0  0  0  0  0  0  0  0  0  0
    0.0509   -4.9594   33.7349 O   0  0  0  0  0  0  0  0  0  0  0  0
    1.9670   -3.7765   32.5867 C   0  0  0  0  0  0  0  0  0  0  0  0
    1.9498   -2.4414   32.7862 C   0  0  0  0  0  0  0  0  0  0  0  0
    2.8512   -1.5695   31.9086 N   0  0  0  0  0  0  0  0  0  0  0  0
    2.0383   -0.1974   31.1534 S   0  0  0  0  0  0  0  0  0  0  0  0
    1.3680   -0.7713   30.0030 O   0  0  0  0  0  0  0  0  0  0  0  0
    1.2973    0.4730   32.2010 O   0  0  0  0  0  0  0  0  0  0  0  0
    3.0623    1.0870   30.4245 N   0  0  0  0  0  0  0  0  0  0  0  0
    2.1236    2.3200   30.1565 C   0  0  0  0  0  0  0  0  0  0  0  0
    2.7977    3.5086   29.4281 C   0  0  0  0  0  0  0  0  0  0  0  0
    3.4127    3.1444   28.1481 N   0  0  0  0  0  0  0  0  0  0  0  0
    4.3448    2.0356   28.3955 C   0  0  0  0  0  0  0  0  0  0  0  0
    3.6940    0.7805   29.0679 C   0  0  0  0  0  0  0  0  0  0  0  0
    3.7250   -2.3046   31.0754 C   0  0  0  0  0  0  0  0  0  0  0  0
    3.7294   -3.5820   30.8820 N   0  0  0  0  0  0  0  0  0  0  0  0
    2.7754   -4.3177   31.5236 C   0  0  0  0  0  0  0  0  0  0  0  0
   -1.5497   -1.1262   29.7198 C   0  0  0  0  0  0  0  0  0  0  0  0
   -1.8170   -1.6022   28.4504 C   0  0  0  0  0  0  0  0  0  0  0  0
   -1.9790   -0.7370   27.3744 C   0  0  0  0  0  0  0  0  0  0  0  0
   -1.8109    0.6190   27.5625 C   0  0  0  0  0  0  0  0  0  0  0  0
   -1.9780    1.4468   26.4968 O   0  0  0  0  0  0  0  0  0  0  0  0
   -1.4739    1.1112   28.8130 C   0  0  0  0  0  0  0  0  0  0  0  0
   -1.3729    0.2400   29.9082 C   0  0  0  0  0  0  0  0  0  0  0  0
    0.7319   -2.3088   29.9671 H   0  0  0  0  0  0  0  0  0  0  0  0
   -0.6165   -4.9497   29.9786 H   0  0  0  0  0  0  0  0  0  0  0  0
   -0.1174   -3.9875   28.5613 H   0  0  0  0  0  0  0  0  0  0  0  0
    1.4469   -5.9895   29.1049 H   0  0  0  0  0  0  0  0  0  0  0  0
    2.2249   -4.4296   29.0101 H   0  0  0  0  0  0  0  0  0  0  0  0
   -0.5067   -5.7295   33.5423 H   0  0  0  0  0  0  0  0  0  0  0  0
    1.2063   -1.9272   33.3854 H   0  0  0  0  0  0  0  0  0  0  0  0
    1.7621    2.6835   31.1245 H   0  0  0  0  0  0  0  0  0  0  0  0
    1.2695    1.9794   29.5612 H   0  0  0  0  0  0  0  0  0  0  0  0
    2.0463    4.2854   29.2494 H   0  0  0  0  0  0  0  0  0  0  0  0
    3.5597    3.9448   30.0863 H   0  0  0  0  0  0  0  0  0  0  0  0
    3.9234    3.9462   27.7798 H   0  0  0  0  0  0  0  0  0  0  0  0
    5.1747    2.3862   29.0221 H   0  0  0  0  0  0  0  0  0  0  0  0
    4.7759    1.7268   27.4366 H   0  0  0  0  0  0  0  0  0  0  0  0
    4.4764    0.0323   29.2150 H   0  0  0  0  0  0  0  0  0  0  0  0
    2.9377    0.3700   28.3896 H   0  0  0  0  0  0  0  0  0  0  0  0
    4.4507   -1.6781   30.5379 H   0  0  0  0  0  0  0  0  0  0  0  0
   -1.8647   -2.6615   28.2961 H   0  0  0  0  0  0  0  0  0  0  0  0
   -2.2310   -1.1254   26.3927 H   0  0  0  0  0  0  0  0  0  0  0  0
   -2.2544    2.3195   26.8324 H   0  0  0  0  0  0  0  0  0  0  0  0
   -1.2807    2.1733   28.9317 H   0  0  0  0  0  0  0  0  0  0  0  0
   -1.0939    0.6242   30.8853 H   0  0  0  0  0  0  0  0  0  0  0  0
  1  2  2  0
  2  3  2  0
  2  4  1  0
  4  5  1  0
  5  6  1  0
  6  7  1  0
  7  8  1  0
  8  9  2  0
  9 10  1  0
  9 11  1  0
 11 12  2  0
 12 13  1  0
 13 14  1  0
 14 15  2  0
 14 16  2  0
 14 17  1  0
 17 18  1  0
 18 19  1  0
 19 20  1  0
 20 21  1  0
 21 22  1  0
 13 23  1  0
 23 24  2  0
 24 25  1  0
  2 26  1  0
 26 27  2  0
 27 28  1  0
 28 29  2  0
 29 30  1  0
 29 31  1  0
 31 32  2  0
 25  7  2  0
 32 26  1  0
 25 11  1  0
 22 17  1  0
  4 33  1  0
  5 34  1  0
  5 35  1  0
  6 36  1  0
  6 37  1  0
 10 38  1  0
 12 39  1  0
 18 40  1  0
 18 41  1  0
 19 42  1  0
 19 43  1  0
 20 44  1  0
 21 45  1  0
 21 46  1  0
 22 47  1  0
 22 48  1  0
 23 49  1  0
 27 50  1  0
 28 51  1  0
 30 52  1  0
 31 53  1  0
 32 54  1  0
M  END
>  <Energy>  (869) 
-30.585851270498488

>  <compound_id>  (869) 
2901

>  <target_id>  (869) 
1

>  <reference_id>  (869) 
53

>  <inspiration_ids>  (869) 
[189, 53]

>  <energy_score>  (869) 
-15.150771525468997

>  <distance_score>  (869) 
2.7955498592366754

>  <path>  (869) 
/opt/xchem-fragalysis-2/maxwin/BulkDock/SCRATCH/505736/C2901-P53/C2901-P53.minimised.mol

>  <scratch_subdir>  (869) 
/opt/xchem-fragalysis-2/maxwin/BulkDock/SCRATCH/505736/C2901-P53

>  <fragmenstein_runtime>  (869) 
7.9065611362457275

>  <fragmenstein_outcome>  (869) 
too moved

>  <fragmenstein_mode>  (869) 
expansion

>  <fragmenstein_error>  (869) 


$$$$
C2922-P189
     RDKit          3D

 69 73  0  0  0  0  0  0  0  0999 V2000
    2.8284   -5.0715   34.3232 O   0  0  0  0  0  0  0  0  0  0  0  0
    2.1130   -4.2652   34.8534 C   0  0  0  0  0  0  0  0  0  0  0  0
    1.6027   -4.2014   36.2050 N   0  0  0  0  0  0  0  0  0  0  0  0
    1.8708   -5.0342   37.3647 C   0  0  0  0  0  0  0  0  0  0  0  0
    3.2530   -4.6197   37.9983 C   0  0  0  0  0  0  0  0  0  0  0  0
    3.4066   -3.4985   38.7183 N   0  0  0  0  0  0  0  0  0  0  0  0
    4.7268   -3.5218   38.9657 N   0  0  0  0  0  0  0  0  0  0  0  0
    5.3278   -4.6054   38.3934 C   0  0  0  0  0  0  0  0  0  0  0  0
    6.7223   -4.9168   38.4651 C   0  0  0  0  0  0  0  0  0  0  0  0
    7.3489   -6.0017   37.8824 C   0  0  0  0  0  0  0  0  0  0  0  0
    8.7496   -6.0317   38.1428 C   0  0  0  0  0  0  0  0  0  0  0  0
    9.1501   -4.9668   38.9176 C   0  0  0  0  0  0  0  0  0  0  0  0
    7.8429   -3.9425   39.3227 S   0  0  0  0  0  0  0  0  0  0  0  0
    4.4143   -5.3117   37.7619 N   0  0  0  0  0  0  0  0  0  0  0  0
    1.6636   -6.5521   37.1491 C   0  0  0  0  0  0  0  0  0  0  0  0
    0.9758   -6.6003   38.5271 C   0  0  0  0  0  0  0  0  0  0  0  0
    0.6868   -5.0970   38.3681 C   0  0  0  0  0  0  0  0  0  0  0  0
    1.6135   -3.0171   34.0557 C   0  0  0  0  0  0  0  0  0  0  0  0
   -0.2106   -2.8512   34.2157 S   0  0  0  0  0  0  0  0  0  0  0  0
    2.3156   -1.5647   34.9215 Cl  0  0  0  0  0  0  0  0  0  0  0  0
    2.1291   -2.9724   32.5872 C   0  0  0  0  0  0  0  0  0  0  0  0
    2.1883   -4.1281   31.6751 N   0  0  0  0  0  0  0  0  0  0  0  0
    0.9991   -4.7019   31.0104 C   0  0  0  0  0  0  0  0  0  0  0  0
   -0.2293   -3.8398   30.6568 C   0  0  0  0  0  0  0  0  0  0  0  0
    0.0626   -2.4873   30.1367 N   0  0  0  0  0  0  0  0  0  0  0  0
   -0.9765   -1.2900   30.7470 S   0  0  0  0  0  0  0  0  0  0  0  0
   -2.2237   -1.9025   31.1552 O   0  0  0  0  0  0  0  0  0  0  0  0
   -0.1819   -0.4998   31.6614 O   0  0  0  0  0  0  0  0  0  0  0  0
   -1.3137   -0.3196   29.3190 C   0  0  0  0  0  0  0  0  0  0  0  0
   -2.0553   -0.8869   28.2850 C   0  0  0  0  0  0  0  0  0  0  0  0
   -2.4244   -0.0949   27.2044 C   0  0  0  0  0  0  0  0  0  0  0  0
   -2.0539    1.2438   27.1682 C   0  0  0  0  0  0  0  0  0  0  0  0
   -2.4490    1.9936   26.1022 O   0  0  0  0  0  0  0  0  0  0  0  0
   -1.2933    1.8075   28.1861 C   0  0  0  0  0  0  0  0  0  0  0  0
   -0.9127    1.0177   29.2700 C   0  0  0  0  0  0  0  0  0  0  0  0
    0.4050   -5.9327   31.7129 C   0  0  0  0  0  0  0  0  0  0  0  0
    0.0631   -5.7915   33.0122 N   0  0  0  0  0  0  0  0  0  0  0  0
   -0.7195   -6.7446   33.5481 C   0  0  0  0  0  0  0  0  0  0  0  0
   -1.1813   -7.8106   32.8315 C   0  0  0  0  0  0  0  0  0  0  0  0
   -0.7249   -7.8834   31.5465 C   0  0  0  0  0  0  0  0  0  0  0  0
   -1.0694   -8.9499   30.7797 O   0  0  0  0  0  0  0  0  0  0  0  0
    0.0697   -6.9913   30.9491 N   0  0  0  0  0  0  0  0  0  0  0  0
    1.0912   -3.3283   36.3258 H   0  0  0  0  0  0  0  0  0  0  0  0
    5.1516   -2.7828   39.5128 H   0  0  0  0  0  0  0  0  0  0  0  0
    6.8180   -6.7424   37.2943 H   0  0  0  0  0  0  0  0  0  0  0  0
    9.4258   -6.7965   37.7810 H   0  0  0  0  0  0  0  0  0  0  0  0
   10.1487   -4.7406   39.2661 H   0  0  0  0  0  0  0  0  0  0  0  0
    0.9888   -6.8059   36.3226 H   0  0  0  0  0  0  0  0  0  0  0  0
    2.5604   -7.1711   37.0561 H   0  0  0  0  0  0  0  0  0  0  0  0
    0.0988   -7.2485   38.5980 H   0  0  0  0  0  0  0  0  0  0  0  0
    1.6577   -6.8350   39.3525 H   0  0  0  0  0  0  0  0  0  0  0  0
    0.7769   -4.5083   39.2855 H   0  0  0  0  0  0  0  0  0  0  0  0
   -0.2951   -4.8904   37.9235 H   0  0  0  0  0  0  0  0  0  0  0  0
   -0.4958   -4.0985   33.8117 H   0  0  0  0  0  0  0  0  0  0  0  0
    3.1950   -2.7090   32.6654 H   0  0  0  0  0  0  0  0  0  0  0  0
    1.7112   -2.1024   32.0826 H   0  0  0  0  0  0  0  0  0  0  0  0
    2.6689   -4.8848   32.1806 H   0  0  0  0  0  0  0  0  0  0  0  0
    1.3976   -5.0692   30.0547 H   0  0  0  0  0  0  0  0  0  0  0  0
   -0.8850   -3.7839   31.5286 H   0  0  0  0  0  0  0  0  0  0  0  0
   -0.8087   -4.3457   29.8758 H   0  0  0  0  0  0  0  0  0  0  0  0
    1.0388   -2.2069   30.2362 H   0  0  0  0  0  0  0  0  0  0  0  0
   -2.3605   -1.9298   28.3131 H   0  0  0  0  0  0  0  0  0  0  0  0
   -3.0021   -0.5321   26.3965 H   0  0  0  0  0  0  0  0  0  0  0  0
   -2.6366    2.8935   26.4302 H   0  0  0  0  0  0  0  0  0  0  0  0
   -1.0017    2.8534   28.1467 H   0  0  0  0  0  0  0  0  0  0  0  0
   -0.3282    1.4568   30.0740 H   0  0  0  0  0  0  0  0  0  0  0  0
   -0.9916   -6.6019   34.5900 H   0  0  0  0  0  0  0  0  0  0  0  0
   -1.8370   -8.5535   33.2542 H   0  0  0  0  0  0  0  0  0  0  0  0
   -0.3127   -9.0283   30.1679 H   0  0  0  0  0  0  0  0  0  0  0  0
  1  2  2  0
  2  3  1  0
  3  4  1  0
  4  5  1  0
  5  6  2  0
  6  7  1  0
  7  8  1  0
  8  9  1  0
  9 10  2  0
 10 11  1  0
 11 12  2  0
 12 13  1  0
  8 14  2  0
  4 15  1  0
 15 16  1  0
 16 17  1  0
  2 18  1  0
 18 19  1  0
 18 20  1  0
 18 21  1  0
 21 22  1  0
 22 23  1  0
 23 24  1  0
 24 25  1  0
 25 26  1  0
 26 27  2  0
 26 28  2  0
 26 29  1  0
 29 30  2  0
 30 31  1  0
 31 32  2  0
 32 33  1  0
 32 34  1  0
 34 35  2  0
 23 36  1  0
 36 37  2  0
 37 38  1  0
 38 39  2  0
 39 40  1  0
 40 41  1  0
 40 42  2  0
 17  4  1  0
 35 29  1  0
 42 36  1  0
 14  5  1  0
 13  9  1  0
  3 43  1  0
  7 44  1  0
 10 45  1  0
 11 46  1  0
 12 47  1  0
 15 48  1  0
 15 49  1  0
 16 50  1  0
 16 51  1  0
 17 52  1  0
 17 53  1  0
 19 54  1  0
 21 55  1  0
 21 56  1  0
 22 57  1  0
 23 58  1  0
 24 59  1  0
 24 60  1  0
 25 61  1  0
 30 62  1  0
 31 63  1  0
 33 64  1  0
 34 65  1  0
 35 66  1  0
 38 67  1  0
 39 68  1  0
 41 69  1  0
M  END
>  <Energy>  (870) 
93.245124121374005

>  <compound_id>  (870) 
2922

>  <target_id>  (870) 
1

>  <reference_id>  (870) 
189

>  <inspiration_ids>  (870) 
[189, 56]

>  <energy_score>  (870) 
-119.43732921836286

>  <distance_score>  (870) 
1.9450080904319635

>  <path>  (870) 
/opt/xchem-fragalysis-2/maxwin/BulkDock/SCRATCH/505736/C2922-P189/C2922-P189.minimised.mol

>  <scratch_subdir>  (870) 
/opt/xchem-fragalysis-2/maxwin/BulkDock/SCRATCH/505736/C2922-P189

>  <fragmenstein_runtime>  (870) 
21.719733238220215

>  <fragmenstein_outcome>  (870) 
too moved

>  <fragmenstein_mode>  (870) 
expansion

>  <fragmenstein_error>  (870) 


$$$$
C2922-P56
     RDKit          3D

 69 73  0  0  0  0  0  0  0  0999 V2000
    3.1560   -4.5460   35.0937 O   0  0  0  0  0  0  0  0  0  0  0  0
    2.3324   -3.7147   35.0406 C   0  0  0  0  0  0  0  0  0  0  0  0
    1.6550   -2.8820   36.1841 N   0  0  0  0  0  0  0  0  0  0  0  0
    1.9269   -2.8432   37.6008 C   0  0  0  0  0  0  0  0  0  0  0  0
    3.4526   -2.5496   37.7874 C   0  0  0  0  0  0  0  0  0  0  0  0
    4.0769   -2.4927   38.9726 N   0  0  0  0  0  0  0  0  0  0  0  0
    5.3129   -2.1150   38.6030 N   0  0  0  0  0  0  0  0  0  0  0  0
    5.4102   -1.9231   37.2569 C   0  0  0  0  0  0  0  0  0  0  0  0
    6.5879   -1.5192   36.5534 C   0  0  0  0  0  0  0  0  0  0  0  0
    6.7075   -1.3642   35.1855 C   0  0  0  0  0  0  0  0  0  0  0  0
    8.0120   -0.9474   34.7917 C   0  0  0  0  0  0  0  0  0  0  0  0
    8.8503   -0.7980   35.8733 C   0  0  0  0  0  0  0  0  0  0  0  0
    8.0639   -1.1604   37.3484 S   0  0  0  0  0  0  0  0  0  0  0  0
    4.2372   -2.1553   36.7150 N   0  0  0  0  0  0  0  0  0  0  0  0
    1.0184   -1.8442   38.3688 C   0  0  0  0  0  0  0  0  0  0  0  0
    0.0350   -3.0051   38.5984 C   0  0  0  0  0  0  0  0  0  0  0  0
    1.2249   -3.9579   38.3979 C   0  0  0  0  0  0  0  0  0  0  0  0
    1.7139   -3.1749   33.7297 C   0  0  0  0  0  0  0  0  0  0  0  0
   -0.1087   -3.3691   33.9923 S   0  0  0  0  0  0  0  0  0  0  0  0
    2.0060   -1.3376   33.7620 Cl  0  0  0  0  0  0  0  0  0  0  0  0
    2.4822   -3.6756   32.4543 C   0  0  0  0  0  0  0  0  0  0  0  0
    2.3094   -4.9472   31.7351 N   0  0  0  0  0  0  0  0  0  0  0  0
    0.9951   -5.2419   31.0887 C   0  0  0  0  0  0  0  0  0  0  0  0
    0.2506   -4.1153   30.2992 C   0  0  0  0  0  0  0  0  0  0  0  0
    0.2056   -2.7927   30.9859 N   0  0  0  0  0  0  0  0  0  0  0  0
   -1.2630   -1.9947   31.2008 S   0  0  0  0  0  0  0  0  0  0  0  0
   -2.3546   -2.9392   31.1124 O   0  0  0  0  0  0  0  0  0  0  0  0
   -1.1289   -1.1194   32.3477 O   0  0  0  0  0  0  0  0  0  0  0  0
   -1.2749   -0.9119   29.8122 C   0  0  0  0  0  0  0  0  0  0  0  0
   -1.9009   -1.3136   28.6478 C   0  0  0  0  0  0  0  0  0  0  0  0
   -2.0635   -0.3887   27.6279 C   0  0  0  0  0  0  0  0  0  0  0  0
   -1.5631    0.8978   27.7459 C   0  0  0  0  0  0  0  0  0  0  0  0
   -1.7894    1.7500   26.7093 O   0  0  0  0  0  0  0  0  0  0  0  0
   -0.8881    1.2919   28.8906 C   0  0  0  0  0  0  0  0  0  0  0  0
   -0.7551    0.3847   29.9410 C   0  0  0  0  0  0  0  0  0  0  0  0
    0.0952   -6.1184   31.9740 C   0  0  0  0  0  0  0  0  0  0  0  0
    0.4251   -6.1780   33.2836 N   0  0  0  0  0  0  0  0  0  0  0  0
   -0.2727   -6.9951   34.0780 C   0  0  0  0  0  0  0  0  0  0  0  0
   -1.2360   -7.8348   33.6025 C   0  0  0  0  0  0  0  0  0  0  0  0
   -1.4559   -7.7453   32.2493 C   0  0  0  0  0  0  0  0  0  0  0  0
   -2.3494   -8.5890   31.6562 O   0  0  0  0  0  0  0  0  0  0  0  0
   -0.8467   -6.8952   31.4094 N   0  0  0  0  0  0  0  0  0  0  0  0
    1.0384   -2.1859   35.7779 H   0  0  0  0  0  0  0  0  0  0  0  0
    6.0339   -1.9974   39.3030 H   0  0  0  0  0  0  0  0  0  0  0  0
    5.8863   -1.5482   34.5010 H   0  0  0  0  0  0  0  0  0  0  0  0
    8.3163   -0.7691   33.7676 H   0  0  0  0  0  0  0  0  0  0  0  0
    9.8883   -0.4945   35.8688 H   0  0  0  0  0  0  0  0  0  0  0  0
    1.4425   -1.4506   39.3010 H   0  0  0  0  0  0  0  0  0  0  0  0
    0.6180   -1.0025   37.7953 H   0  0  0  0  0  0  0  0  0  0  0  0
   -0.4405   -3.0384   39.5818 H   0  0  0  0  0  0  0  0  0  0  0  0
   -0.7386   -3.0911   37.8264 H   0  0  0  0  0  0  0  0  0  0  0  0
    0.9610   -4.8609   37.8443 H   0  0  0  0  0  0  0  0  0  0  0  0
    1.7062   -4.2253   39.3437 H   0  0  0  0  0  0  0  0  0  0  0  0
   -0.4148   -2.0907   33.7220 H   0  0  0  0  0  0  0  0  0  0  0  0
    2.4881   -2.8916   31.6904 H   0  0  0  0  0  0  0  0  0  0  0  0
    3.5445   -3.6926   32.7419 H   0  0  0  0  0  0  0  0  0  0  0  0
    2.4523   -5.7106   32.4207 H   0  0  0  0  0  0  0  0  0  0  0  0
    1.2747   -5.9480   30.2987 H   0  0  0  0  0  0  0  0  0  0  0  0
   -0.7471   -4.4500   30.0201 H   0  0  0  0  0  0  0  0  0  0  0  0
    0.7911   -3.9459   29.3582 H   0  0  0  0  0  0  0  0  0  0  0  0
    0.9048   -2.1550   30.5981 H   0  0  0  0  0  0  0  0  0  0  0  0
   -2.3222   -2.3061   28.5531 H   0  0  0  0  0  0  0  0  0  0  0  0
   -2.6391   -0.6484   26.7526 H   0  0  0  0  0  0  0  0  0  0  0  0
   -1.7509    2.6624   27.0505 H   0  0  0  0  0  0  0  0  0  0  0  0
   -0.4847    2.2955   28.9856 H   0  0  0  0  0  0  0  0  0  0  0  0
   -0.2655    0.7014   30.8599 H   0  0  0  0  0  0  0  0  0  0  0  0
   -0.0034   -6.9591   35.1282 H   0  0  0  0  0  0  0  0  0  0  0  0
   -1.7593   -8.5180   34.2537 H   0  0  0  0  0  0  0  0  0  0  0  0
   -2.7174   -9.1662   32.3440 H   0  0  0  0  0  0  0  0  0  0  0  0
  1  2  2  0
  2  3  1  0
  3  4  1  0
  4  5  1  0
  5  6  2  0
  6  7  1  0
  7  8  1  0
  8  9  1  0
  9 10  2  0
 10 11  1  0
 11 12  2  0
 12 13  1  0
  8 14  2  0
  4 15  1  0
 15 16  1  0
 16 17  1  0
  2 18  1  0
 18 19  1  0
 18 20  1  0
 18 21  1  0
 21 22  1  0
 22 23  1  0
 23 24  1  0
 24 25  1  0
 25 26  1  0
 26 27  2  0
 26 28  2  0
 26 29  1  0
 29 30  2  0
 30 31  1  0
 31 32  2  0
 32 33  1  0
 32 34  1  0
 34 35  2  0
 23 36  1  0
 36 37  2  0
 37 38  1  0
 38 39  2  0
 39 40  1  0
 40 41  1  0
 40 42  2  0
 17  4  1  0
 35 29  1  0
 42 36  1  0
 14  5  1  0
 13  9  1  0
  3 43  1  0
  7 44  1  0
 10 45  1  0
 11 46  1  0
 12 47  1  0
 15 48  1  0
 15 49  1  0
 16 50  1  0
 16 51  1  0
 17 52  1  0
 17 53  1  0
 19 54  1  0
 21 55  1  0
 21 56  1  0
 22 57  1  0
 23 58  1  0
 24 59  1  0
 24 60  1  0
 25 61  1  0
 30 62  1  0
 31 63  1  0
 33 64  1  0
 34 65  1  0
 35 66  1  0
 38 67  1  0
 39 68  1  0
 41 69  1  0
M  END
>  <Energy>  (871) 
133.69690591499298

>  <compound_id>  (871) 
2922

>  <target_id>  (871) 
1

>  <reference_id>  (871) 
56

>  <inspiration_ids>  (871) 
[189, 56]

>  <energy_score>  (871) 
-62.44977638919188

>  <distance_score>  (871) 
1.5730944353127145

>  <path>  (871) 
/opt/xchem-fragalysis-2/maxwin/BulkDock/SCRATCH/505736/C2922-P56/C2922-P56.minimised.mol

>  <scratch_subdir>  (871) 
/opt/xchem-fragalysis-2/maxwin/BulkDock/SCRATCH/505736/C2922-P56

>  <fragmenstein_runtime>  (871) 
14.299656867980957

>  <fragmenstein_outcome>  (871) 
too moved

>  <fragmenstein_mode>  (871) 
expansion

>  <fragmenstein_error>  (871) 


$$$$
C2658-P189
     RDKit          3D

 55 58  0  0  0  0  0  0  0  0999 V2000
    4.6849   -0.8040   30.4498 O   0  0  0  0  0  0  0  0  0  0  0  0
    3.6395   -1.1042   31.0299 C   0  0  0  0  0  0  0  0  0  0  0  0
    3.6172   -1.7951   32.3999 C   0  0  0  0  0  0  0  0  0  0  0  0
    4.9529   -3.0160   32.5219 S   0  0  0  0  0  0  0  0  0  0  0  0
    3.7943   -0.5474   33.6541 Cl  0  0  0  0  0  0  0  0  0  0  0  0
    2.4171   -0.7238   30.4902 N   0  0  0  0  0  0  0  0  0  0  0  0
    1.8535    0.5854   30.8898 C   0  0  0  0  0  0  0  0  0  0  0  0
    1.3638    1.3532   29.6931 C   0  0  0  0  0  0  0  0  0  0  0  0
    1.1623    2.7722   29.5639 C   0  0  0  0  0  0  0  0  0  0  0  0
    0.6607    3.1415   28.3338 C   0  0  0  0  0  0  0  0  0  0  0  0
    0.5007    1.7973   27.3184 S   0  0  0  0  0  0  0  0  0  0  0  0
    1.0049    0.7085   28.5363 C   0  0  0  0  0  0  0  0  0  0  0  0
    1.0955   -0.7812   28.3265 C   0  0  0  0  0  0  0  0  0  0  0  0
    1.7013   -1.6249   29.5311 C   0  0  0  0  0  0  0  0  0  0  0  0
    0.7555   -2.7952   30.1673 C   0  0  0  0  0  0  0  0  0  0  0  0
    1.4636   -4.1765   30.4181 C   0  0  0  0  0  0  0  0  0  0  0  0
    0.7396   -5.1844   31.3100 C   0  0  0  0  0  0  0  0  0  0  0  0
    0.9597   -5.0624   32.6366 N   0  0  0  0  0  0  0  0  0  0  0  0
    0.2982   -5.9111   33.4511 C   0  0  0  0  0  0  0  0  0  0  0  0
   -0.5277   -6.9089   33.0027 C   0  0  0  0  0  0  0  0  0  0  0  0
   -0.6453   -6.9858   31.6368 C   0  0  0  0  0  0  0  0  0  0  0  0
   -1.4504   -7.9555   31.0839 O   0  0  0  0  0  0  0  0  0  0  0  0
   -0.0252   -6.1579   30.7643 N   0  0  0  0  0  0  0  0  0  0  0  0
    0.1720   -2.2920   31.4186 N   0  0  0  0  0  0  0  0  0  0  0  0
   -1.4706   -2.1335   31.6495 S   0  0  0  0  0  0  0  0  0  0  0  0
   -2.0988   -3.4341   31.5803 O   0  0  0  0  0  0  0  0  0  0  0  0
   -1.6084   -1.2661   32.7978 O   0  0  0  0  0  0  0  0  0  0  0  0
   -1.9245   -1.2204   30.2118 C   0  0  0  0  0  0  0  0  0  0  0  0
   -2.2707   -1.9315   29.0639 C   0  0  0  0  0  0  0  0  0  0  0  0
   -2.5513   -1.2608   27.8815 C   0  0  0  0  0  0  0  0  0  0  0  0
   -2.4737    0.1168   27.8543 C   0  0  0  0  0  0  0  0  0  0  0  0
   -2.6520    0.7856   26.6833 O   0  0  0  0  0  0  0  0  0  0  0  0
   -2.1897    0.8340   29.0105 C   0  0  0  0  0  0  0  0  0  0  0  0
   -1.9063    0.1685   30.2046 C   0  0  0  0  0  0  0  0  0  0  0  0
    2.6701   -2.3034   32.5720 H   0  0  0  0  0  0  0  0  0  0  0  0
    5.9162   -2.1824   32.0945 H   0  0  0  0  0  0  0  0  0  0  0  0
    2.6195    1.1633   31.4180 H   0  0  0  0  0  0  0  0  0  0  0  0
    1.0247    0.4033   31.5802 H   0  0  0  0  0  0  0  0  0  0  0  0
    1.3619    3.4920   30.3491 H   0  0  0  0  0  0  0  0  0  0  0  0
    0.4052    4.1362   27.9928 H   0  0  0  0  0  0  0  0  0  0  0  0
    1.8075   -0.9074   27.5019 H   0  0  0  0  0  0  0  0  0  0  0  0
    0.1561   -1.2107   27.9906 H   0  0  0  0  0  0  0  0  0  0  0  0
    2.5041   -2.2118   29.0586 H   0  0  0  0  0  0  0  0  0  0  0  0
   -0.0157   -3.0279   29.4325 H   0  0  0  0  0  0  0  0  0  0  0  0
    1.6585   -4.6492   29.4472 H   0  0  0  0  0  0  0  0  0  0  0  0
    2.4477   -3.9991   30.8628 H   0  0  0  0  0  0  0  0  0  0  0  0
    0.4555   -5.7509   34.5144 H   0  0  0  0  0  0  0  0  0  0  0  0
   -1.0410   -7.5660   33.6901 H   0  0  0  0  0  0  0  0  0  0  0  0
   -1.8779   -8.4239   31.8230 H   0  0  0  0  0  0  0  0  0  0  0  0
    0.7238   -1.7551   32.0781 H   0  0  0  0  0  0  0  0  0  0  0  0
   -2.2947   -3.0144   29.0784 H   0  0  0  0  0  0  0  0  0  0  0  0
   -2.8149   -1.8203   26.9913 H   0  0  0  0  0  0  0  0  0  0  0  0
   -2.7049    0.1055   25.9870 H   0  0  0  0  0  0  0  0  0  0  0  0
   -2.1539    1.9179   28.9501 H   0  0  0  0  0  0  0  0  0  0  0  0
   -1.6447    0.7322   31.0934 H   0  0  0  0  0  0  0  0  0  0  0  0
  1  2  2  0
  2  3  1  0
  3  4  1  0
  3  5  1  0
  2  6  1  0
  6  7  1  0
  7  8  1  0
  8  9  1  0
  9 10  2  0
 10 11  1  0
 11 12  1  0
 12 13  1  0
 13 14  1  0
 14 15  1  0
 15 16  1  0
 16 17  1  0
 17 18  2  0
 18 19  1  0
 19 20  2  0
 20 21  1  0
 21 22  1  0
 21 23  2  0
 15 24  1  0
 24 25  1  0
 25 26  2  0
 25 27  2  0
 25 28  1  0
 28 29  2  0
 29 30  1  0
 30 31  2  0
 31 32  1  0
 31 33  1  0
 33 34  2  0
 14  6  1  0
 23 17  1  0
 34 28  1  0
 12  8  2  0
  3 35  1  0
  4 36  1  0
  7 37  1  0
  7 38  1  0
  9 39  1  0
 10 40  1  0
 13 41  1  0
 13 42  1  0
 14 43  1  0
 15 44  1  0
 16 45  1  0
 16 46  1  0
 19 47  1  0
 20 48  1  0
 22 49  1  0
 24 50  1  0
 29 51  1  0
 30 52  1  0
 32 53  1  0
 33 54  1  0
 34 55  1  0
M  END
>  <Energy>  (872) 
20.131242026326255

>  <compound_id>  (872) 
2658

>  <target_id>  (872) 
1

>  <reference_id>  (872) 
189

>  <inspiration_ids>  (872) 
[189, 57]

>  <energy_score>  (872) 
-85.68892579498174

>  <distance_score>  (872) 
3.149835862168074

>  <path>  (872) 
/opt/xchem-fragalysis-2/maxwin/BulkDock/SCRATCH/505736/C2658-P189/C2658-P189.minimised.mol

>  <scratch_subdir>  (872) 
/opt/xchem-fragalysis-2/maxwin/BulkDock/SCRATCH/505736/C2658-P189

>  <fragmenstein_runtime>  (872) 
7.208609580993652

>  <fragmenstein_outcome>  (872) 
too moved

>  <fragmenstein_mode>  (872) 
expansion

>  <fragmenstein_error>  (872) 


$$$$
C2658-P57
     RDKit          3D

 55 58  0  0  0  0  0  0  0  0999 V2000
    4.8180   -0.8265   30.7876 O   0  0  0  0  0  0  0  0  0  0  0  0
    3.7139   -1.1089   31.2568 C   0  0  0  0  0  0  0  0  0  0  0  0
    3.5314   -1.7127   32.6522 C   0  0  0  0  0  0  0  0  0  0  0  0
    4.1627   -0.5526   33.8996 S   0  0  0  0  0  0  0  0  0  0  0  0
    4.4287   -3.2468   32.7383 Cl  0  0  0  0  0  0  0  0  0  0  0  0
    2.5559   -0.7914   30.5658 N   0  0  0  0  0  0  0  0  0  0  0  0
    1.9498    0.5269   30.8321 C   0  0  0  0  0  0  0  0  0  0  0  0
    1.5657    1.2226   29.5585 C   0  0  0  0  0  0  0  0  0  0  0  0
    1.3186    2.6264   29.3492 C   0  0  0  0  0  0  0  0  0  0  0  0
    0.9479    2.9232   28.0549 C   0  0  0  0  0  0  0  0  0  0  0  0
    0.9719    1.5315   27.0874 S   0  0  0  0  0  0  0  0  0  0  0  0
    1.3477    0.5122   28.4037 C   0  0  0  0  0  0  0  0  0  0  0  0
    1.4669   -0.9883   28.2802 C   0  0  0  0  0  0  0  0  0  0  0  0
    1.9531   -1.7545   29.5909 C   0  0  0  0  0  0  0  0  0  0  0  0
    0.9497   -2.8971   30.2003 C   0  0  0  0  0  0  0  0  0  0  0  0
    1.5686   -4.3308   30.3906 C   0  0  0  0  0  0  0  0  0  0  0  0
    0.7915   -5.2744   31.3068 C   0  0  0  0  0  0  0  0  0  0  0  0
    0.9038   -5.0067   32.6286 N   0  0  0  0  0  0  0  0  0  0  0  0
    0.2184   -5.8025   33.4766 C   0  0  0  0  0  0  0  0  0  0  0  0
   -0.5666   -6.8487   33.0687 C   0  0  0  0  0  0  0  0  0  0  0  0
   -0.6231   -7.0321   31.7081 C   0  0  0  0  0  0  0  0  0  0  0  0
   -1.4166   -8.0361   31.2008 O   0  0  0  0  0  0  0  0  0  0  0  0
    0.0386   -6.2760   30.8034 N   0  0  0  0  0  0  0  0  0  0  0  0
    0.3863   -2.3878   31.4967 N   0  0  0  0  0  0  0  0  0  0  0  0
   -1.2789   -2.0941   31.5947 S   0  0  0  0  0  0  0  0  0  0  0  0
   -1.9595   -3.3701   31.5320 O   0  0  0  0  0  0  0  0  0  0  0  0
   -1.4625   -1.1982   32.7144 O   0  0  0  0  0  0  0  0  0  0  0  0
   -1.6037   -1.2129   30.1061 C   0  0  0  0  0  0  0  0  0  0  0  0
   -1.8844   -1.9300   28.9511 C   0  0  0  0  0  0  0  0  0  0  0  0
   -2.1020   -1.2707   27.7479 C   0  0  0  0  0  0  0  0  0  0  0  0
   -2.0488    0.1058   27.7035 C   0  0  0  0  0  0  0  0  0  0  0  0
   -2.2369    0.7643   26.5284 O   0  0  0  0  0  0  0  0  0  0  0  0
   -1.8172    0.8307   28.8611 C   0  0  0  0  0  0  0  0  0  0  0  0
   -1.5793    0.1703   30.0720 C   0  0  0  0  0  0  0  0  0  0  0  0
    2.4853   -1.9184   32.8715 H   0  0  0  0  0  0  0  0  0  0  0  0
    5.3803   -0.4332   33.3455 H   0  0  0  0  0  0  0  0  0  0  0  0
    2.6570    1.1433   31.3987 H   0  0  0  0  0  0  0  0  0  0  0  0
    1.0684    0.3673   31.4594 H   0  0  0  0  0  0  0  0  0  0  0  0
    1.3955    3.3825   30.1216 H   0  0  0  0  0  0  0  0  0  0  0  0
    0.6939    3.8899   27.6408 H   0  0  0  0  0  0  0  0  0  0  0  0
    0.5627   -1.4421   27.8827 H   0  0  0  0  0  0  0  0  0  0  0  0
    2.2409   -1.1700   27.5208 H   0  0  0  0  0  0  0  0  0  0  0  0
    2.8059   -2.3559   29.2407 H   0  0  0  0  0  0  0  0  0  0  0  0
    0.1733   -3.0683   29.4620 H   0  0  0  0  0  0  0  0  0  0  0  0
    1.6864   -4.8005   29.4069 H   0  0  0  0  0  0  0  0  0  0  0  0
    2.5779   -4.2361   30.8011 H   0  0  0  0  0  0  0  0  0  0  0  0
    0.3169   -5.5554   34.5306 H   0  0  0  0  0  0  0  0  0  0  0  0
   -1.1060   -7.4560   33.7819 H   0  0  0  0  0  0  0  0  0  0  0  0
   -1.8071   -8.4916   31.9669 H   0  0  0  0  0  0  0  0  0  0  0  0
    0.5930   -3.0309   32.2768 H   0  0  0  0  0  0  0  0  0  0  0  0
   -1.9338   -3.0122   28.9826 H   0  0  0  0  0  0  0  0  0  0  0  0
   -2.3424   -1.8388   26.8585 H   0  0  0  0  0  0  0  0  0  0  0  0
   -2.2866    0.0845   25.8308 H   0  0  0  0  0  0  0  0  0  0  0  0
   -1.7915    1.9141   28.7865 H   0  0  0  0  0  0  0  0  0  0  0  0
   -1.3410    0.7286   30.9692 H   0  0  0  0  0  0  0  0  0  0  0  0
  1  2  2  0
  2  3  1  0
  3  4  1  0
  3  5  1  0
  2  6  1  0
  6  7  1  0
  7  8  1  0
  8  9  1  0
  9 10  2  0
 10 11  1  0
 11 12  1  0
 12 13  1  0
 13 14  1  0
 14 15  1  0
 15 16  1  0
 16 17  1  0
 17 18  2  0
 18 19  1  0
 19 20  2  0
 20 21  1  0
 21 22  1  0
 21 23  2  0
 15 24  1  0
 24 25  1  0
 25 26  2  0
 25 27  2  0
 25 28  1  0
 28 29  2  0
 29 30  1  0
 30 31  2  0
 31 32  1  0
 31 33  1  0
 33 34  2  0
 14  6  1  0
 23 17  1  0
 34 28  1  0
 12  8  2  0
  3 35  1  0
  4 36  1  0
  7 37  1  0
  7 38  1  0
  9 39  1  0
 10 40  1  0
 13 41  1  0
 13 42  1  0
 14 43  1  0
 15 44  1  0
 16 45  1  0
 16 46  1  0
 19 47  1  0
 20 48  1  0
 22 49  1  0
 24 50  1  0
 29 51  1  0
 30 52  1  0
 32 53  1  0
 33 54  1  0
 34 55  1  0
M  END
>  <Energy>  (873) 
22.07472945994008

>  <compound_id>  (873) 
2658

>  <target_id>  (873) 
1

>  <reference_id>  (873) 
57

>  <inspiration_ids>  (873) 
[189, 57]

>  <energy_score>  (873) 
-83.74543836136854

>  <distance_score>  (873) 
3.1864242800223264

>  <path>  (873) 
/opt/xchem-fragalysis-2/maxwin/BulkDock/SCRATCH/505736/C2658-P57/C2658-P57.minimised.mol

>  <scratch_subdir>  (873) 
/opt/xchem-fragalysis-2/maxwin/BulkDock/SCRATCH/505736/C2658-P57

>  <fragmenstein_runtime>  (873) 
6.726164817810059

>  <fragmenstein_outcome>  (873) 
too moved

>  <fragmenstein_mode>  (873) 
expansion

>  <fragmenstein_error>  (873) 


$$$$
C2923-P189
     RDKit          3D

 65 69  0  0  0  0  0  0  0  0999 V2000
   -2.2503   -3.7717   31.9707 O   0  0  0  0  0  0  0  0  0  0  0  0
   -1.0699   -3.2440   31.3242 S   0  0  0  0  0  0  0  0  0  0  0  0
   -0.0026   -4.1345   30.9491 O   0  0  0  0  0  0  0  0  0  0  0  0
   -1.6510   -2.3435   29.9009 C   0  0  0  0  0  0  0  0  0  0  0  0
   -0.7003   -2.3405   28.7348 C   0  0  0  0  0  0  0  0  0  0  0  0
   -0.3570   -0.9378   28.2759 C   0  0  0  0  0  0  0  0  0  0  0  0
    0.2137   -0.0106   29.2959 C   0  0  0  0  0  0  0  0  0  0  0  0
    1.2445   -0.1555   30.1547 C   0  0  0  0  0  0  0  0  0  0  0  0
    1.5535    1.1557   30.8238 C   0  0  0  0  0  0  0  0  0  0  0  0
    0.2945    1.9554   30.5696 C   0  0  0  0  0  0  0  0  0  0  0  0
   -0.3242    1.3876   29.3068 C   0  0  0  0  0  0  0  0  0  0  0  0
    2.1445   -1.3308   30.4410 C   0  0  0  0  0  0  0  0  0  0  0  0
    2.6794   -1.4869   31.8889 C   0  0  0  0  0  0  0  0  0  0  0  0
    1.8529   -2.0717   33.0176 C   0  0  0  0  0  0  0  0  0  0  0  0
    0.5559   -2.3955   33.1789 C   0  0  0  0  0  0  0  0  0  0  0  0
   -0.4022   -2.0143   32.2361 N   0  0  0  0  0  0  0  0  0  0  0  0
    0.2847   -3.0846   34.4960 C   0  0  0  0  0  0  0  0  0  0  0  0
   -0.9503   -2.8591   35.3906 C   0  0  0  0  0  0  0  0  0  0  0  0
   -1.4517   -1.4269   35.6152 C   0  0  0  0  0  0  0  0  0  0  0  0
   -2.2674   -1.3615   36.8824 N   0  0  0  0  0  0  0  0  0  0  0  0
   -3.1570   -0.3550   36.2806 C   0  0  0  0  0  0  0  0  0  0  0  0
   -4.5220   -0.5194   36.6996 O   0  0  0  0  0  0  0  0  0  0  0  0
   -2.7554   -0.9087   34.8870 C   0  0  0  0  0  0  0  0  0  0  0  0
   -3.7936   -1.8630   34.3270 C   0  0  0  0  0  0  0  0  0  0  0  0
   -4.6557   -1.1111   33.3514 C   0  0  0  0  0  0  0  0  0  0  0  0
   -3.7102   -0.6680   32.2442 C   0  0  0  0  0  0  0  0  0  0  0  0
   -2.4150   -0.1397   32.6629 N   0  0  0  0  0  0  0  0  0  0  0  0
   -2.4453    0.2748   34.0277 N   0  0  0  0  0  0  0  0  0  0  0  0
    1.6009   -2.7673   35.2515 C   0  0  0  0  0  0  0  0  0  0  0  0
    2.5410   -2.4370   34.1799 N   0  0  0  0  0  0  0  0  0  0  0  0
   -1.9307   -1.3375   30.2130 H   0  0  0  0  0  0  0  0  0  0  0  0
   -2.5832   -2.8250   29.6005 H   0  0  0  0  0  0  0  0  0  0  0  0
   -1.2068   -2.8438   27.9145 H   0  0  0  0  0  0  0  0  0  0  0  0
    0.2071   -2.9232   28.8941 H   0  0  0  0  0  0  0  0  0  0  0  0
   -1.2577   -0.4907   27.8352 H   0  0  0  0  0  0  0  0  0  0  0  0
    0.3810   -0.9876   27.4779 H   0  0  0  0  0  0  0  0  0  0  0  0
    2.4328    1.6202   30.3651 H   0  0  0  0  0  0  0  0  0  0  0  0
    1.7131    1.0715   31.9016 H   0  0  0  0  0  0  0  0  0  0  0  0
    0.5025    3.0270   30.4859 H   0  0  0  0  0  0  0  0  0  0  0  0
   -0.3813    1.8168   31.4213 H   0  0  0  0  0  0  0  0  0  0  0  0
    0.0044    1.9326   28.4155 H   0  0  0  0  0  0  0  0  0  0  0  0
   -1.4169    1.4088   29.3586 H   0  0  0  0  0  0  0  0  0  0  0  0
    3.0245   -1.1988   29.7960 H   0  0  0  0  0  0  0  0  0  0  0  0
    1.6964   -2.2727   30.1315 H   0  0  0  0  0  0  0  0  0  0  0  0
    3.1091   -0.5390   32.2336 H   0  0  0  0  0  0  0  0  0  0  0  0
    3.5461   -2.1590   31.7912 H   0  0  0  0  0  0  0  0  0  0  0  0
   -0.1291   -1.2219   31.6646 H   0  0  0  0  0  0  0  0  0  0  0  0
    0.2974   -4.1633   34.2745 H   0  0  0  0  0  0  0  0  0  0  0  0
   -1.7550   -3.4766   35.0006 H   0  0  0  0  0  0  0  0  0  0  0  0
   -0.7113   -3.3054   36.3671 H   0  0  0  0  0  0  0  0  0  0  0  0
   -0.6219   -0.7075   35.6503 H   0  0  0  0  0  0  0  0  0  0  0  0
   -1.7795   -1.0460   37.7153 H   0  0  0  0  0  0  0  0  0  0  0  0
   -2.8216    0.6700   36.4894 H   0  0  0  0  0  0  0  0  0  0  0  0
   -5.0222    0.0447   36.0871 H   0  0  0  0  0  0  0  0  0  0  0  0
   -4.3980   -2.3506   35.0974 H   0  0  0  0  0  0  0  0  0  0  0  0
   -3.2913   -2.6470   33.7718 H   0  0  0  0  0  0  0  0  0  0  0  0
   -5.1432   -0.2475   33.8176 H   0  0  0  0  0  0  0  0  0  0  0  0
   -5.4409   -1.7664   32.9621 H   0  0  0  0  0  0  0  0  0  0  0  0
   -3.5373   -1.5238   31.5950 H   0  0  0  0  0  0  0  0  0  0  0  0
   -4.1709    0.0992   31.6471 H   0  0  0  0  0  0  0  0  0  0  0  0
   -2.1210    0.5981   32.0208 H   0  0  0  0  0  0  0  0  0  0  0  0
   -1.5593    0.7185   34.2898 H   0  0  0  0  0  0  0  0  0  0  0  0
    1.9549   -3.6256   35.8310 H   0  0  0  0  0  0  0  0  0  0  0  0
    1.4928   -1.9065   35.9210 H   0  0  0  0  0  0  0  0  0  0  0  0
    3.3316   -1.8453   34.4204 H   0  0  0  0  0  0  0  0  0  0  0  0
  1  2  2  0
  2  3  2  0
  2  4  1  0
  4  5  1  0
  5  6  1  0
  6  7  1  0
  7  8  2  0
  8  9  1  0
  9 10  1  0
 10 11  1  0
  8 12  1  0
 12 13  1  0
 13 14  1  0
 14 15  2  0
 15 16  1  0
 15 17  1  0
 17 18  1  0
 18 19  1  0
 19 20  1  0
 20 21  1  0
 21 22  1  0
 21 23  1  0
 23 24  1  0
 24 25  1  0
 25 26  1  0
 26 27  1  0
 27 28  1  0
 17 29  1  0
 29 30  1  0
 16  2  1  0
 23 19  1  0
 11  7  1  0
 30 14  1  0
 28 23  1  0
  4 31  1  0
  4 32  1  0
  5 33  1  0
  5 34  1  0
  6 35  1  0
  6 36  1  0
  9 37  1  0
  9 38  1  0
 10 39  1  0
 10 40  1  0
 11 41  1  0
 11 42  1  0
 12 43  1  0
 12 44  1  0
 13 45  1  0
 13 46  1  0
 16 47  1  0
 17 48  1  0
 18 49  1  0
 18 50  1  0
 19 51  1  0
 20 52  1  0
 21 53  1  0
 22 54  1  0
 24 55  1  0
 24 56  1  0
 25 57  1  0
 25 58  1  0
 26 59  1  0
 26 60  1  0
 27 61  1  0
 28 62  1  0
 29 63  1  0
 29 64  1  0
 30 65  1  0
M  END
>  <Energy>  (874) 
110.4881927874186

>  <compound_id>  (874) 
2923

>  <target_id>  (874) 
1

>  <reference_id>  (874) 
189

>  <inspiration_ids>  (874) 
[189, 59]

>  <energy_score>  (874) 
-132.9500022333222

>  <distance_score>  (874) 
2.408230233040317

>  <path>  (874) 
/opt/xchem-fragalysis-2/maxwin/BulkDock/SCRATCH/505736/C2923-P189/C2923-P189.minimised.mol

>  <scratch_subdir>  (874) 
/opt/xchem-fragalysis-2/maxwin/BulkDock/SCRATCH/505736/C2923-P189

>  <fragmenstein_runtime>  (874) 
4.458262920379639

>  <fragmenstein_outcome>  (874) 
too moved

>  <fragmenstein_mode>  (874) 
expansion

>  <fragmenstein_error>  (874) 


$$$$
C2923-P59
     RDKit          3D

 65 69  0  0  0  0  0  0  0  0999 V2000
   -1.5137   -4.2217   31.5852 O   0  0  0  0  0  0  0  0  0  0  0  0
   -1.4653   -2.8030   31.8505 S   0  0  0  0  0  0  0  0  0  0  0  0
   -2.4034   -2.2334   32.7784 O   0  0  0  0  0  0  0  0  0  0  0  0
   -1.6912   -1.9337   30.3271 C   0  0  0  0  0  0  0  0  0  0  0  0
   -0.8191   -2.4877   29.2349 C   0  0  0  0  0  0  0  0  0  0  0  0
   -0.6588   -1.4958   28.1060 C   0  0  0  0  0  0  0  0  0  0  0  0
   -0.0189   -0.2033   28.4850 C   0  0  0  0  0  0  0  0  0  0  0  0
    1.1944    0.0149   29.0295 C   0  0  0  0  0  0  0  0  0  0  0  0
    1.5079    1.4832   28.9953 C   0  0  0  0  0  0  0  0  0  0  0  0
    0.1204    2.0977   28.9001 C   0  0  0  0  0  0  0  0  0  0  0  0
   -0.7261    1.0769   28.1584 C   0  0  0  0  0  0  0  0  0  0  0  0
    2.2343   -0.9577   29.5140 C   0  0  0  0  0  0  0  0  0  0  0  0
    2.5112   -1.0501   31.0444 C   0  0  0  0  0  0  0  0  0  0  0  0
    1.4744   -0.5032   31.9925 C   0  0  0  0  0  0  0  0  0  0  0  0
    0.3793   -1.0598   32.5413 C   0  0  0  0  0  0  0  0  0  0  0  0
    0.0902   -2.4182   32.2978 N   0  0  0  0  0  0  0  0  0  0  0  0
   -0.4878   -0.0278   33.2752 C   0  0  0  0  0  0  0  0  0  0  0  0
   -0.6962   -0.1350   34.8042 C   0  0  0  0  0  0  0  0  0  0  0  0
   -1.9301   -0.9398   35.2715 C   0  0  0  0  0  0  0  0  0  0  0  0
   -2.1723   -0.6571   36.7443 N   0  0  0  0  0  0  0  0  0  0  0  0
   -3.3144    0.1947   36.3752 C   0  0  0  0  0  0  0  0  0  0  0  0
   -4.3867    0.0561   37.3121 O   0  0  0  0  0  0  0  0  0  0  0  0
   -3.4549   -0.5907   35.0579 C   0  0  0  0  0  0  0  0  0  0  0  0
   -4.5134   -1.6892   35.1685 C   0  0  0  0  0  0  0  0  0  0  0  0
   -5.8335   -1.1264   34.6909 C   0  0  0  0  0  0  0  0  0  0  0  0
   -5.6630   -0.8004   33.2106 C   0  0  0  0  0  0  0  0  0  0  0  0
   -4.3134   -0.3063   32.8459 N   0  0  0  0  0  0  0  0  0  0  0  0
   -3.7080    0.3991   33.9732 N   0  0  0  0  0  0  0  0  0  0  0  0
    0.3193    1.2784   32.9761 C   0  0  0  0  0  0  0  0  0  0  0  0
    1.5784    0.8104   32.4193 N   0  0  0  0  0  0  0  0  0  0  0  0
   -1.5411   -0.8709   30.5296 H   0  0  0  0  0  0  0  0  0  0  0  0
   -2.7371   -2.0626   30.0626 H   0  0  0  0  0  0  0  0  0  0  0  0
   -1.2499   -3.4166   28.8505 H   0  0  0  0  0  0  0  0  0  0  0  0
    0.1565   -2.7851   29.6241 H   0  0  0  0  0  0  0  0  0  0  0  0
   -1.6264   -1.3188   27.6222 H   0  0  0  0  0  0  0  0  0  0  0  0
   -0.0047   -1.9556   27.3715 H   0  0  0  0  0  0  0  0  0  0  0  0
    2.0430    1.8479   29.8710 H   0  0  0  0  0  0  0  0  0  0  0  0
    2.1091    1.7143   28.1083 H   0  0  0  0  0  0  0  0  0  0  0  0
    0.1305    3.0699   28.3975 H   0  0  0  0  0  0  0  0  0  0  0  0
   -0.2667    2.2578   29.9105 H   0  0  0  0  0  0  0  0  0  0  0  0
   -0.7168    1.2536   27.0776 H   0  0  0  0  0  0  0  0  0  0  0  0
   -1.7600    1.0867   28.5157 H   0  0  0  0  0  0  0  0  0  0  0  0
    3.1830   -0.7161   29.0152 H   0  0  0  0  0  0  0  0  0  0  0  0
    2.0026   -1.9632   29.1484 H   0  0  0  0  0  0  0  0  0  0  0  0
    2.7253   -2.0972   31.2930 H   0  0  0  0  0  0  0  0  0  0  0  0
    3.4581   -0.5285   31.2436 H   0  0  0  0  0  0  0  0  0  0  0  0
    0.8028   -2.9847   31.8411 H   0  0  0  0  0  0  0  0  0  0  0  0
   -1.4477    0.0778   32.7678 H   0  0  0  0  0  0  0  0  0  0  0  0
    0.2050   -0.5653   35.2608 H   0  0  0  0  0  0  0  0  0  0  0  0
   -0.7905    0.8804   35.2118 H   0  0  0  0  0  0  0  0  0  0  0  0
   -1.7138   -2.0056   35.1175 H   0  0  0  0  0  0  0  0  0  0  0  0
   -2.4715   -1.4960   37.2425 H   0  0  0  0  0  0  0  0  0  0  0  0
   -3.0298    1.2504   36.2748 H   0  0  0  0  0  0  0  0  0  0  0  0
   -3.9969    0.3864   38.1398 H   0  0  0  0  0  0  0  0  0  0  0  0
   -4.5977   -2.0921   36.1809 H   0  0  0  0  0  0  0  0  0  0  0  0
   -4.2498   -2.5174   34.5218 H   0  0  0  0  0  0  0  0  0  0  0  0
   -6.0968   -0.2192   35.2485 H   0  0  0  0  0  0  0  0  0  0  0  0
   -6.6526   -1.8320   34.8444 H   0  0  0  0  0  0  0  0  0  0  0  0
   -5.8690   -1.6920   32.6118 H   0  0  0  0  0  0  0  0  0  0  0  0
   -6.4216   -0.0637   32.9487 H   0  0  0  0  0  0  0  0  0  0  0  0
   -3.7254   -1.1372   32.6482 H   0  0  0  0  0  0  0  0  0  0  0  0
   -4.3323    1.1504   34.2917 H   0  0  0  0  0  0  0  0  0  0  0  0
    0.5044    1.9058   33.8528 H   0  0  0  0  0  0  0  0  0  0  0  0
   -0.2008    1.8840   32.2290 H   0  0  0  0  0  0  0  0  0  0  0  0
    2.0997    1.4467   31.8270 H   0  0  0  0  0  0  0  0  0  0  0  0
  1  2  2  0
  2  3  2  0
  2  4  1  0
  4  5  1  0
  5  6  1  0
  6  7  1  0
  7  8  2  0
  8  9  1  0
  9 10  1  0
 10 11  1  0
  8 12  1  0
 12 13  1  0
 13 14  1  0
 14 15  2  0
 15 16  1  0
 15 17  1  0
 17 18  1  0
 18 19  1  0
 19 20  1  0
 20 21  1  0
 21 22  1  0
 21 23  1  0
 23 24  1  0
 24 25  1  0
 25 26  1  0
 26 27  1  0
 27 28  1  0
 17 29  1  0
 29 30  1  0
 16  2  1  0
 23 19  1  0
 11  7  1  0
 30 14  1  0
 28 23  1  0
  4 31  1  0
  4 32  1  0
  5 33  1  0
  5 34  1  0
  6 35  1  0
  6 36  1  0
  9 37  1  0
  9 38  1  0
 10 39  1  0
 10 40  1  0
 11 41  1  0
 11 42  1  0
 12 43  1  0
 12 44  1  0
 13 45  1  0
 13 46  1  0
 16 47  1  0
 17 48  1  0
 18 49  1  0
 18 50  1  0
 19 51  1  0
 20 52  1  0
 21 53  1  0
 22 54  1  0
 24 55  1  0
 24 56  1  0
 25 57  1  0
 25 58  1  0
 26 59  1  0
 26 60  1  0
 27 61  1  0
 28 62  1  0
 29 63  1  0
 29 64  1  0
 30 65  1  0
M  END
>  <Energy>  (875) 
92.276824409585799

>  <compound_id>  (875) 
2923

>  <target_id>  (875) 
1

>  <reference_id>  (875) 
59

>  <inspiration_ids>  (875) 
[189, 59]

>  <energy_score>  (875) 
-151.16137061115313

>  <distance_score>  (875) 
2.4529420075523523

>  <path>  (875) 
/opt/xchem-fragalysis-2/maxwin/BulkDock/SCRATCH/505736/C2923-P59/C2923-P59.minimised.mol

>  <scratch_subdir>  (875) 
/opt/xchem-fragalysis-2/maxwin/BulkDock/SCRATCH/505736/C2923-P59

>  <fragmenstein_runtime>  (875) 
4.520028591156006

>  <fragmenstein_outcome>  (875) 
too moved

>  <fragmenstein_mode>  (875) 
expansion

>  <fragmenstein_error>  (875) 


$$$$
C148-P189
     RDKit          3D

 37 38  0  0  0  0  0  0  0  0999 V2000
    0.0332   -6.1409   35.0844 C   0  0  0  0  0  0  0  0  0  0  0  0
   -0.0887   -6.4904   33.6346 C   0  0  0  0  0  0  0  0  0  0  0  0
   -0.9627   -7.4740   33.2261 C   0  0  0  0  0  0  0  0  0  0  0  0
   -1.0185   -7.6952   31.8731 C   0  0  0  0  0  0  0  0  0  0  0  0
   -1.8669   -8.6217   31.3436 O   0  0  0  0  0  0  0  0  0  0  0  0
   -0.2912   -7.0312   30.9668 N   0  0  0  0  0  0  0  0  0  0  0  0
    0.5235   -6.0850   31.4584 C   0  0  0  0  0  0  0  0  0  0  0  0
    1.2401   -5.1917   30.4872 C   0  0  0  0  0  0  0  0  0  0  0  0
    0.3499   -4.0063   30.1292 C   0  0  0  0  0  0  0  0  0  0  0  0
    0.2077   -3.0602   31.2662 N   0  0  0  0  0  0  0  0  0  0  0  0
   -1.3141   -2.4188   31.5681 S   0  0  0  0  0  0  0  0  0  0  0  0
   -2.2727   -3.4960   31.4805 O   0  0  0  0  0  0  0  0  0  0  0  0
   -1.1772   -1.6411   32.7769 O   0  0  0  0  0  0  0  0  0  0  0  0
   -1.5315   -1.3753   30.3093 N   0  0  0  0  0  0  0  0  0  0  0  0
   -1.8591   -1.8015   28.9375 C   0  0  0  0  0  0  0  0  0  0  0  0
   -1.4602   -0.6182   28.0600 C   0  0  0  0  0  0  0  0  0  0  0  0
   -1.3753    0.5566   29.0153 C   0  0  0  0  0  0  0  0  0  0  0  0
   -0.8280   -0.0892   30.2779 C   0  0  0  0  0  0  0  0  0  0  0  0
    0.6684   -5.7925   32.7648 N   0  0  0  0  0  0  0  0  0  0  0  0
   -0.9275   -5.7867   35.4712 H   0  0  0  0  0  0  0  0  0  0  0  0
    0.3498   -7.0171   35.6592 H   0  0  0  0  0  0  0  0  0  0  0  0
    0.7740   -5.3491   35.2350 H   0  0  0  0  0  0  0  0  0  0  0  0
   -1.5624   -8.0271   33.9341 H   0  0  0  0  0  0  0  0  0  0  0  0
   -2.4323   -8.9823   32.0515 H   0  0  0  0  0  0  0  0  0  0  0  0
    1.4818   -5.7639   29.5849 H   0  0  0  0  0  0  0  0  0  0  0  0
    2.1879   -4.8538   30.9222 H   0  0  0  0  0  0  0  0  0  0  0  0
   -0.6204   -4.3765   29.7891 H   0  0  0  0  0  0  0  0  0  0  0  0
    0.8059   -3.4523   29.3011 H   0  0  0  0  0  0  0  0  0  0  0  0
    0.5043   -3.4806   32.1553 H   0  0  0  0  0  0  0  0  0  0  0  0
   -1.3158   -2.6884   28.6190 H   0  0  0  0  0  0  0  0  0  0  0  0
   -2.9261   -2.0053   28.8556 H   0  0  0  0  0  0  0  0  0  0  0  0
   -0.4677   -0.7995   27.6350 H   0  0  0  0  0  0  0  0  0  0  0  0
   -2.1617   -0.4480   27.2386 H   0  0  0  0  0  0  0  0  0  0  0  0
   -2.3770    0.9612   29.1968 H   0  0  0  0  0  0  0  0  0  0  0  0
   -0.7378    1.3634   28.6436 H   0  0  0  0  0  0  0  0  0  0  0  0
   -1.0538    0.5238   31.1543 H   0  0  0  0  0  0  0  0  0  0  0  0
    0.2530   -0.2463   30.2014 H   0  0  0  0  0  0  0  0  0  0  0  0
  1  2  1  0
  2  3  2  0
  3  4  1  0
  4  5  1  0
  4  6  2  0
  6  7  1  0
  7  8  1  0
  8  9  1  0
  9 10  1  0
 10 11  1  0
 11 12  2  0
 11 13  2  0
 11 14  1  0
 14 15  1  0
 15 16  1  0
 16 17  1  0
 17 18  1  0
  7 19  2  0
 19  2  1  0
 18 14  1  0
  1 20  1  0
  1 21  1  0
  1 22  1  0
  3 23  1  0
  5 24  1  0
  8 25  1  0
  8 26  1  0
  9 27  1  0
  9 28  1  0
 10 29  1  0
 15 30  1  0
 15 31  1  0
 16 32  1  0
 16 33  1  0
 17 34  1  0
 17 35  1  0
 18 36  1  0
 18 37  1  0
M  END
>  <Energy>  (876) 
-217.94370976957887

>  <compound_id>  (876) 
148

>  <target_id>  (876) 
1

>  <reference_id>  (876) 
189

>  <inspiration_ids>  (876) 
[189, 147]

>  <energy_score>  (876) 
-32.93157761131761

>  <distance_score>  (876) 
0.693037591438247

>  <path>  (876) 
/opt/xchem-fragalysis-2/maxwin/BulkDock/SCRATCH/505736/C148-P189/C148-P189.minimised.mol

>  <scratch_subdir>  (876) 
/opt/xchem-fragalysis-2/maxwin/BulkDock/SCRATCH/505736/C148-P189

>  <fragmenstein_runtime>  (876) 
2.1233978271484375

>  <fragmenstein_outcome>  (876) 
acceptable

>  <fragmenstein_mode>  (876) 
expansion

>  <fragmenstein_error>  (876) 


$$$$
C148-P147
     RDKit          3D

 37 38  0  0  0  0  0  0  0  0999 V2000
   -0.0134   -6.1248   35.1372 C   0  0  0  0  0  0  0  0  0  0  0  0
   -0.1305   -6.4510   33.6820 C   0  0  0  0  0  0  0  0  0  0  0  0
   -1.0102   -7.4205   33.2534 C   0  0  0  0  0  0  0  0  0  0  0  0
   -1.0543   -7.6269   31.8978 C   0  0  0  0  0  0  0  0  0  0  0  0
   -1.9009   -8.5443   31.3499 O   0  0  0  0  0  0  0  0  0  0  0  0
   -0.3109   -6.9600   31.0076 N   0  0  0  0  0  0  0  0  0  0  0  0
    0.5095   -6.0292   31.5179 C   0  0  0  0  0  0  0  0  0  0  0  0
    1.2713   -5.1529   30.5672 C   0  0  0  0  0  0  0  0  0  0  0  0
    0.4185   -3.9573   30.1641 C   0  0  0  0  0  0  0  0  0  0  0  0
    0.2393   -3.0048   31.2906 N   0  0  0  0  0  0  0  0  0  0  0  0
   -1.2689   -2.2917   31.4782 S   0  0  0  0  0  0  0  0  0  0  0  0
   -2.2665   -3.3209   31.3060 O   0  0  0  0  0  0  0  0  0  0  0  0
   -1.1943   -1.5361   32.7068 O   0  0  0  0  0  0  0  0  0  0  0  0
   -1.3289   -1.2201   30.2208 N   0  0  0  0  0  0  0  0  0  0  0  0
   -1.4834   -1.6038   28.8046 C   0  0  0  0  0  0  0  0  0  0  0  0
   -0.8882   -0.4408   28.0184 C   0  0  0  0  0  0  0  0  0  0  0  0
   -0.8930    0.7192   28.9922 C   0  0  0  0  0  0  0  0  0  0  0  0
   -0.5734    0.0358   30.3096 C   0  0  0  0  0  0  0  0  0  0  0  0
    0.6404   -5.7499   32.8282 N   0  0  0  0  0  0  0  0  0  0  0  0
   -0.9728   -5.7665   35.5236 H   0  0  0  0  0  0  0  0  0  0  0  0
    0.2905   -7.0128   35.7007 H   0  0  0  0  0  0  0  0  0  0  0  0
    0.7346   -5.3431   35.3044 H   0  0  0  0  0  0  0  0  0  0  0  0
   -1.6194   -7.9774   33.9496 H   0  0  0  0  0  0  0  0  0  0  0  0
   -2.4770   -8.9095   32.0470 H   0  0  0  0  0  0  0  0  0  0  0  0
    1.5418   -5.7346   29.6802 H   0  0  0  0  0  0  0  0  0  0  0  0
    2.2056   -4.8221   31.0355 H   0  0  0  0  0  0  0  0  0  0  0  0
   -0.5407   -4.3111   29.7764 H   0  0  0  0  0  0  0  0  0  0  0  0
    0.9293   -3.4165   29.3598 H   0  0  0  0  0  0  0  0  0  0  0  0
    0.4500   -3.4382   32.1979 H   0  0  0  0  0  0  0  0  0  0  0  0
   -0.9775   -2.5290   28.5401 H   0  0  0  0  0  0  0  0  0  0  0  0
   -2.5305   -1.7103   28.5429 H   0  0  0  0  0  0  0  0  0  0  0  0
    0.1452   -0.6744   27.7398 H   0  0  0  0  0  0  0  0  0  0  0  0
   -1.4527   -0.2178   27.1096 H   0  0  0  0  0  0  0  0  0  0  0  0
   -1.8892    1.1733   29.0251 H   0  0  0  0  0  0  0  0  0  0  0  0
   -0.1682    1.4957   28.7334 H   0  0  0  0  0  0  0  0  0  0  0  0
   -0.8985    0.6483   31.1542 H   0  0  0  0  0  0  0  0  0  0  0  0
    0.4995   -0.1689   30.3918 H   0  0  0  0  0  0  0  0  0  0  0  0
  1  2  1  0
  2  3  2  0
  3  4  1  0
  4  5  1  0
  4  6  2  0
  6  7  1  0
  7  8  1  0
  8  9  1  0
  9 10  1  0
 10 11  1  0
 11 12  2  0
 11 13  2  0
 11 14  1  0
 14 15  1  0
 15 16  1  0
 16 17  1  0
 17 18  1  0
  7 19  2  0
 19  2  1  0
 18 14  1  0
  1 20  1  0
  1 21  1  0
  1 22  1  0
  3 23  1  0
  5 24  1  0
  8 25  1  0
  8 26  1  0
  9 27  1  0
  9 28  1  0
 10 29  1  0
 15 30  1  0
 15 31  1  0
 16 32  1  0
 16 33  1  0
 17 34  1  0
 17 35  1  0
 18 36  1  0
 18 37  1  0
M  END
>  <Energy>  (877) 
-217.61466325906756

>  <compound_id>  (877) 
148

>  <target_id>  (877) 
1

>  <reference_id>  (877) 
147

>  <inspiration_ids>  (877) 
[189, 147]

>  <energy_score>  (877) 
-32.602531100806786

>  <distance_score>  (877) 
0.7637221710429904

>  <path>  (877) 
/opt/xchem-fragalysis-2/maxwin/BulkDock/SCRATCH/505736/C148-P147/C148-P147.minimised.mol

>  <scratch_subdir>  (877) 
/opt/xchem-fragalysis-2/maxwin/BulkDock/SCRATCH/505736/C148-P147

>  <fragmenstein_runtime>  (877) 
2.037527561187744

>  <fragmenstein_outcome>  (877) 
acceptable

>  <fragmenstein_mode>  (877) 
expansion

>  <fragmenstein_error>  (877) 


$$$$
C2926-P189
     RDKit          3D

 52 54  0  0  0  0  0  0  0  0999 V2000
    2.7196   -7.0130   38.8423 C   0  0  0  0  0  0  0  0  0  0  0  0
    3.2135   -8.1789   38.0014 C   0  0  0  0  0  0  0  0  0  0  0  0
    4.3816   -8.9227   38.6281 C   0  0  0  0  0  0  0  0  0  0  0  0
    5.0237   -9.6104   37.4395 C   0  0  0  0  0  0  0  0  0  0  0  0
    4.6329   -8.8871   36.2579 O   0  0  0  0  0  0  0  0  0  0  0  0
    3.8088   -7.7695   36.6568 C   0  0  0  0  0  0  0  0  0  0  0  0
    2.9248   -7.3969   35.4903 C   0  0  0  0  0  0  0  0  0  0  0  0
    1.5819   -7.4051   35.3595 C   0  0  0  0  0  0  0  0  0  0  0  0
    0.8470   -7.0338   34.1156 C   0  0  0  0  0  0  0  0  0  0  0  0
   -0.3867   -7.5907   33.8692 C   0  0  0  0  0  0  0  0  0  0  0  0
   -0.8494   -7.4347   32.5915 C   0  0  0  0  0  0  0  0  0  0  0  0
   -1.9349   -8.1184   32.1603 O   0  0  0  0  0  0  0  0  0  0  0  0
   -0.2857   -6.6927   31.6397 N   0  0  0  0  0  0  0  0  0  0  0  0
    0.8392   -6.0656   32.0156 C   0  0  0  0  0  0  0  0  0  0  0  0
    1.4739   -5.1460   31.0069 C   0  0  0  0  0  0  0  0  0  0  0  0
    0.5111   -4.0695   30.5009 C   0  0  0  0  0  0  0  0  0  0  0  0
    0.2199   -3.1015   31.5620 N   0  0  0  0  0  0  0  0  0  0  0  0
   -1.2305   -2.2837   31.5842 S   0  0  0  0  0  0  0  0  0  0  0  0
   -2.3082   -3.2173   31.3613 O   0  0  0  0  0  0  0  0  0  0  0  0
   -1.1764   -1.4319   32.7487 O   0  0  0  0  0  0  0  0  0  0  0  0
   -1.0119   -1.3108   30.2426 N   0  0  0  0  0  0  0  0  0  0  0  0
   -1.3362   -1.8207   28.8852 C   0  0  0  0  0  0  0  0  0  0  0  0
   -1.9482   -0.6378   28.1412 C   0  0  0  0  0  0  0  0  0  0  0  0
   -1.4502    0.5732   28.9021 C   0  0  0  0  0  0  0  0  0  0  0  0
   -1.4798    0.0859   30.3386 C   0  0  0  0  0  0  0  0  0  0  0  0
    1.4776   -6.2685   33.1935 N   0  0  0  0  0  0  0  0  0  0  0  0
    3.5139   -6.2795   39.0172 H   0  0  0  0  0  0  0  0  0  0  0  0
    2.3673   -7.3654   39.8173 H   0  0  0  0  0  0  0  0  0  0  0  0
    1.8889   -6.4979   38.3500 H   0  0  0  0  0  0  0  0  0  0  0  0
    2.3866   -8.8801   37.8579 H   0  0  0  0  0  0  0  0  0  0  0  0
    4.0794   -9.6281   39.4077 H   0  0  0  0  0  0  0  0  0  0  0  0
    5.0950   -8.2192   39.0746 H   0  0  0  0  0  0  0  0  0  0  0  0
    6.1153   -9.6217   37.5114 H   0  0  0  0  0  0  0  0  0  0  0  0
    4.6770  -10.6429   37.3359 H   0  0  0  0  0  0  0  0  0  0  0  0
    4.4953   -6.9255   36.8138 H   0  0  0  0  0  0  0  0  0  0  0  0
    3.5061   -7.0412   34.6411 H   0  0  0  0  0  0  0  0  0  0  0  0
    0.9571   -7.7473   36.1813 H   0  0  0  0  0  0  0  0  0  0  0  0
   -0.9109   -8.2038   34.5869 H   0  0  0  0  0  0  0  0  0  0  0  0
   -2.1034   -7.6476   31.3298 H   0  0  0  0  0  0  0  0  0  0  0  0
    2.3644   -4.6792   31.4449 H   0  0  0  0  0  0  0  0  0  0  0  0
    1.8100   -5.7535   30.1589 H   0  0  0  0  0  0  0  0  0  0  0  0
   -0.4058   -4.5258   30.1163 H   0  0  0  0  0  0  0  0  0  0  0  0
    0.9957   -3.5367   29.6760 H   0  0  0  0  0  0  0  0  0  0  0  0
    0.9802   -2.4927   31.8587 H   0  0  0  0  0  0  0  0  0  0  0  0
   -2.0278   -2.6623   28.9094 H   0  0  0  0  0  0  0  0  0  0  0  0
   -0.4071   -2.1339   28.4011 H   0  0  0  0  0  0  0  0  0  0  0  0
   -1.6636   -0.6018   27.0904 H   0  0  0  0  0  0  0  0  0  0  0  0
   -3.0391   -0.6908   28.1766 H   0  0  0  0  0  0  0  0  0  0  0  0
   -0.4233    0.8114   28.6001 H   0  0  0  0  0  0  0  0  0  0  0  0
   -2.0710    1.4584   28.7424 H   0  0  0  0  0  0  0  0  0  0  0  0
   -0.8186    0.6842   30.9712 H   0  0  0  0  0  0  0  0  0  0  0  0
   -2.5011    0.1195   30.7336 H   0  0  0  0  0  0  0  0  0  0  0  0
  1  2  1  0
  2  3  1  0
  3  4  1  0
  4  5  1  0
  5  6  1  0
  6  7  1  0
  7  8  2  3
  8  9  1  0
  9 10  2  0
 10 11  1  0
 11 12  1  0
 11 13  2  0
 13 14  1  0
 14 15  1  0
 15 16  1  0
 16 17  1  0
 17 18  1  0
 18 19  2  0
 18 20  2  0
 18 21  1  0
 21 22  1  0
 22 23  1  0
 23 24  1  0
 24 25  1  0
 14 26  2  0
  6  2  1  0
 26  9  1  0
 25 21  1  0
  1 27  1  0
  1 28  1  0
  1 29  1  0
  2 30  1  0
  3 31  1  0
  3 32  1  0
  4 33  1  0
  4 34  1  0
  6 35  1  0
  7 36  1  0
  8 37  1  0
 10 38  1  0
 12 39  1  0
 15 40  1  0
 15 41  1  0
 16 42  1  0
 16 43  1  0
 17 44  1  0
 22 45  1  0
 22 46  1  0
 23 47  1  0
 23 48  1  0
 24 49  1  0
 24 50  1  0
 25 51  1  0
 25 52  1  0
M  END
>  <Energy>  (878) 
-225.71866637926971

>  <compound_id>  (878) 
2926

>  <target_id>  (878) 
1

>  <reference_id>  (878) 
189

>  <inspiration_ids>  (878) 
[189, 148]

>  <energy_score>  (878) 
-91.76913076779118

>  <distance_score>  (878) 
0.9472745809840907

>  <path>  (878) 
/opt/xchem-fragalysis-2/maxwin/BulkDock/SCRATCH/505736/C2926-P189/C2926-P189.minimised.mol

>  <scratch_subdir>  (878) 
/opt/xchem-fragalysis-2/maxwin/BulkDock/SCRATCH/505736/C2926-P189

>  <fragmenstein_runtime>  (878) 
3.5056769847869873

>  <fragmenstein_outcome>  (878) 
acceptable

>  <fragmenstein_mode>  (878) 
expansion

>  <fragmenstein_error>  (878) 


$$$$
C2926-P148
     RDKit          3D

 52 54  0  0  0  0  0  0  0  0999 V2000
    2.7035   -7.0793   38.9070 C   0  0  0  0  0  0  0  0  0  0  0  0
    3.2190   -8.2172   38.0412 C   0  0  0  0  0  0  0  0  0  0  0  0
    4.3978   -8.9541   38.6561 C   0  0  0  0  0  0  0  0  0  0  0  0
    5.0631   -9.5982   37.4558 C   0  0  0  0  0  0  0  0  0  0  0  0
    4.6400   -8.8745   36.2856 O   0  0  0  0  0  0  0  0  0  0  0  0
    3.8106   -7.7703   36.7075 C   0  0  0  0  0  0  0  0  0  0  0  0
    2.9226   -7.3776   35.5505 C   0  0  0  0  0  0  0  0  0  0  0  0
    1.5785   -7.3655   35.4364 C   0  0  0  0  0  0  0  0  0  0  0  0
    0.8260   -6.9806   34.2086 C   0  0  0  0  0  0  0  0  0  0  0  0
   -0.4247   -7.5102   33.9955 C   0  0  0  0  0  0  0  0  0  0  0  0
   -0.9153   -7.3482   32.7294 C   0  0  0  0  0  0  0  0  0  0  0  0
   -2.0327   -8.0124   32.3483 O   0  0  0  0  0  0  0  0  0  0  0  0
   -0.3547   -6.6293   31.7554 N   0  0  0  0  0  0  0  0  0  0  0  0
    0.7965   -6.0290   32.0983 C   0  0  0  0  0  0  0  0  0  0  0  0
    1.4633   -5.1629   31.0604 C   0  0  0  0  0  0  0  0  0  0  0  0
    0.5553   -4.0732   30.4956 C   0  0  0  0  0  0  0  0  0  0  0  0
    0.3002   -3.0354   31.4952 N   0  0  0  0  0  0  0  0  0  0  0  0
   -1.2000   -2.3408   31.6388 S   0  0  0  0  0  0  0  0  0  0  0  0
   -2.1951   -3.3752   31.4938 O   0  0  0  0  0  0  0  0  0  0  0  0
   -1.1361   -1.5019   32.8123 O   0  0  0  0  0  0  0  0  0  0  0  0
   -1.2315   -1.3400   30.3241 N   0  0  0  0  0  0  0  0  0  0  0  0
   -1.4201   -1.7992   28.9372 C   0  0  0  0  0  0  0  0  0  0  0  0
   -0.9213   -0.6431   28.0743 C   0  0  0  0  0  0  0  0  0  0  0  0
   -0.9025    0.5557   29.0033 C   0  0  0  0  0  0  0  0  0  0  0  0
   -0.5104   -0.0646   30.3325 C   0  0  0  0  0  0  0  0  0  0  0  0
    1.4530   -6.2377   33.2664 N   0  0  0  0  0  0  0  0  0  0  0  0
    3.4845   -6.3358   39.0988 H   0  0  0  0  0  0  0  0  0  0  0  0
    2.3573   -7.4596   39.8737 H   0  0  0  0  0  0  0  0  0  0  0  0
    1.8639   -6.5679   38.4265 H   0  0  0  0  0  0  0  0  0  0  0  0
    2.4063   -8.9308   37.8782 H   0  0  0  0  0  0  0  0  0  0  0  0
    4.1039   -9.6856   39.4147 H   0  0  0  0  0  0  0  0  0  0  0  0
    5.0942   -8.2497   39.1274 H   0  0  0  0  0  0  0  0  0  0  0  0
    6.1545   -9.5635   37.5251 H   0  0  0  0  0  0  0  0  0  0  0  0
    4.7620  -10.6432   37.3394 H   0  0  0  0  0  0  0  0  0  0  0  0
    4.4915   -6.9255   36.8832 H   0  0  0  0  0  0  0  0  0  0  0  0
    3.5012   -7.0265   34.6984 H   0  0  0  0  0  0  0  0  0  0  0  0
    0.9624   -7.7033   36.2667 H   0  0  0  0  0  0  0  0  0  0  0  0
   -0.9438   -8.1136   34.7259 H   0  0  0  0  0  0  0  0  0  0  0  0
   -2.2225   -7.5692   31.5091 H   0  0  0  0  0  0  0  0  0  0  0  0
    2.3656   -4.7100   31.4888 H   0  0  0  0  0  0  0  0  0  0  0  0
    1.7854   -5.8110   30.2384 H   0  0  0  0  0  0  0  0  0  0  0  0
   -0.3727   -4.5141   30.1210 H   0  0  0  0  0  0  0  0  0  0  0  0
    1.0654   -3.6017   29.6480 H   0  0  0  0  0  0  0  0  0  0  0  0
    1.0611   -2.4270   31.7846 H   0  0  0  0  0  0  0  0  0  0  0  0
   -2.4700   -1.9795   28.7354 H   0  0  0  0  0  0  0  0  0  0  0  0
   -0.8631   -2.7068   28.7068 H   0  0  0  0  0  0  0  0  0  0  0  0
    0.0987   -0.8537   27.7335 H   0  0  0  0  0  0  0  0  0  0  0  0
   -1.5501   -0.4746   27.1962 H   0  0  0  0  0  0  0  0  0  0  0  0
   -0.2048    1.3328   28.6794 H   0  0  0  0  0  0  0  0  0  0  0  0
   -1.9024    0.9976   29.0669 H   0  0  0  0  0  0  0  0  0  0  0  0
    0.5697   -0.2408   30.3765 H   0  0  0  0  0  0  0  0  0  0  0  0
   -0.8123    0.5715   31.1671 H   0  0  0  0  0  0  0  0  0  0  0  0
  1  2  1  0
  2  3  1  0
  3  4  1  0
  4  5  1  0
  5  6  1  0
  6  7  1  0
  7  8  2  3
  8  9  1  0
  9 10  2  0
 10 11  1  0
 11 12  1  0
 11 13  2  0
 13 14  1  0
 14 15  1  0
 15 16  1  0
 16 17  1  0
 17 18  1  0
 18 19  2  0
 18 20  2  0
 18 21  1  0
 21 22  1  0
 22 23  1  0
 23 24  1  0
 24 25  1  0
 14 26  2  0
  6  2  1  0
 26  9  1  0
 25 21  1  0
  1 27  1  0
  1 28  1  0
  1 29  1  0
  2 30  1  0
  3 31  1  0
  3 32  1  0
  4 33  1  0
  4 34  1  0
  6 35  1  0
  7 36  1  0
  8 37  1  0
 10 38  1  0
 12 39  1  0
 15 40  1  0
 15 41  1  0
 16 42  1  0
 16 43  1  0
 17 44  1  0
 22 45  1  0
 22 46  1  0
 23 47  1  0
 23 48  1  0
 24 49  1  0
 24 50  1  0
 25 51  1  0
 25 52  1  0
M  END
>  <Energy>  (879) 
-224.18239935176086

>  <compound_id>  (879) 
2926

>  <target_id>  (879) 
1

>  <reference_id>  (879) 
148

>  <inspiration_ids>  (879) 
[189, 148]

>  <energy_score>  (879) 
-90.2328637402797

>  <distance_score>  (879) 
0.9714181101154883

>  <path>  (879) 
/opt/xchem-fragalysis-2/maxwin/BulkDock/SCRATCH/505736/C2926-P148/C2926-P148.minimised.mol

>  <scratch_subdir>  (879) 
/opt/xchem-fragalysis-2/maxwin/BulkDock/SCRATCH/505736/C2926-P148

>  <fragmenstein_runtime>  (879) 
3.4692368507385254

>  <fragmenstein_outcome>  (879) 
acceptable

>  <fragmenstein_mode>  (879) 
expansion

>  <fragmenstein_error>  (879) 


$$$$
C2928-P189
     RDKit          3D

 67 70  0  0  0  0  0  0  0  0999 V2000
    1.1423   -7.5305   38.3315 C   0  0  0  0  0  0  0  0  0  0  0  0
    0.2779   -6.5573   39.0699 C   0  0  0  0  0  0  0  0  0  0  0  0
    0.0168   -6.7431   40.4218 C   0  0  0  0  0  0  0  0  0  0  0  0
   -0.8122   -5.8355   41.0661 C   0  0  0  0  0  0  0  0  0  0  0  0
   -1.3663   -4.7840   40.3416 C   0  0  0  0  0  0  0  0  0  0  0  0
   -1.0766   -4.6801   38.9895 C   0  0  0  0  0  0  0  0  0  0  0  0
   -1.6288   -3.7014   38.1853 N   0  0  0  0  0  0  0  0  0  0  0  0
   -2.5130   -2.6024   38.4999 C   0  0  0  0  0  0  0  0  0  0  0  0
   -2.9317   -2.2106   39.5541 O   0  0  0  0  0  0  0  0  0  0  0  0
   -2.9158   -1.8928   37.1699 C   0  0  0  0  0  0  0  0  0  0  0  0
   -4.2303   -1.1283   37.3272 C   0  0  0  0  0  0  0  0  0  0  0  0
   -3.8293    0.2670   37.8073 C   0  0  0  0  0  0  0  0  0  0  0  0
   -2.3114    0.3252   37.6793 C   0  0  0  0  0  0  0  0  0  0  0  0
   -2.0070   -0.7913   36.7800 N   0  0  0  0  0  0  0  0  0  0  0  0
   -0.6231   -1.0926   36.7745 N   0  0  0  0  0  0  0  0  0  0  0  0
   -0.0511   -1.2709   35.4438 C   0  0  0  0  0  0  0  0  0  0  0  0
    0.6016   -2.6368   35.2798 C   0  0  0  0  0  0  0  0  0  0  0  0
    0.9495   -2.6604   33.7998 C   0  0  0  0  0  0  0  0  0  0  0  0
   -0.0924   -1.8509   33.1240 N   0  0  0  0  0  0  0  0  0  0  0  0
   -0.9256   -2.5474   31.8488 S   0  0  0  0  0  0  0  0  0  0  0  0
   -1.5405   -3.7819   32.2694 O   0  0  0  0  0  0  0  0  0  0  0  0
   -1.6802   -1.5116   31.1932 O   0  0  0  0  0  0  0  0  0  0  0  0
    0.3974   -2.8792   30.8675 N   0  0  0  0  0  0  0  0  0  0  0  0
    0.2556   -4.0090   29.9178 C   0  0  0  0  0  0  0  0  0  0  0  0
    1.1391   -5.1883   30.3332 C   0  0  0  0  0  0  0  0  0  0  0  0
    0.4725   -6.0998   31.3265 C   0  0  0  0  0  0  0  0  0  0  0  0
    0.8410   -6.0010   32.6189 N   0  0  0  0  0  0  0  0  0  0  0  0
    0.1209   -6.7032   33.5169 C   0  0  0  0  0  0  0  0  0  0  0  0
    0.4445   -6.5220   34.9668 C   0  0  0  0  0  0  0  0  0  0  0  0
   -0.8878   -7.5603   33.1438 C   0  0  0  0  0  0  0  0  0  0  0  0
   -1.1022   -7.6641   31.7955 C   0  0  0  0  0  0  0  0  0  0  0  0
   -2.0315   -8.5266   31.2990 O   0  0  0  0  0  0  0  0  0  0  0  0
   -0.4497   -6.9595   30.8635 N   0  0  0  0  0  0  0  0  0  0  0  0
   -0.9378   -1.2193   34.1807 C   0  0  0  0  0  0  0  0  0  0  0  0
   -0.2641   -5.5454   38.3458 N   0  0  0  0  0  0  0  0  0  0  0  0
    1.8080   -8.0726   39.0106 H   0  0  0  0  0  0  0  0  0  0  0  0
    1.7709   -7.0029   37.6078 H   0  0  0  0  0  0  0  0  0  0  0  0
    0.5161   -8.2528   37.8019 H   0  0  0  0  0  0  0  0  0  0  0  0
    0.4434   -7.5799   40.9665 H   0  0  0  0  0  0  0  0  0  0  0  0
   -1.0422   -5.9508   42.1214 H   0  0  0  0  0  0  0  0  0  0  0  0
   -2.0374   -4.0892   40.8339 H   0  0  0  0  0  0  0  0  0  0  0  0
   -1.4243   -3.6878   37.1967 H   0  0  0  0  0  0  0  0  0  0  0  0
   -3.0106   -2.6294   36.3659 H   0  0  0  0  0  0  0  0  0  0  0  0
   -4.9336   -1.6052   38.0177 H   0  0  0  0  0  0  0  0  0  0  0  0
   -4.7317   -1.0424   36.3546 H   0  0  0  0  0  0  0  0  0  0  0  0
   -4.3117    1.0303   37.1865 H   0  0  0  0  0  0  0  0  0  0  0  0
   -4.1384    0.4331   38.8448 H   0  0  0  0  0  0  0  0  0  0  0  0
   -1.8445    0.2039   38.6652 H   0  0  0  0  0  0  0  0  0  0  0  0
   -1.9849    1.2839   37.2624 H   0  0  0  0  0  0  0  0  0  0  0  0
   -0.2492   -1.7091   37.4975 H   0  0  0  0  0  0  0  0  0  0  0  0
    0.7318   -0.5068   35.3355 H   0  0  0  0  0  0  0  0  0  0  0  0
    1.4856   -2.7730   35.9111 H   0  0  0  0  0  0  0  0  0  0  0  0
   -0.1079   -3.4423   35.5024 H   0  0  0  0  0  0  0  0  0  0  0  0
    1.9186   -2.1803   33.6222 H   0  0  0  0  0  0  0  0  0  0  0  0
    1.0118   -3.6818   33.4339 H   0  0  0  0  0  0  0  0  0  0  0  0
    0.6177   -1.9996   30.3949 H   0  0  0  0  0  0  0  0  0  0  0  0
    0.6089   -3.6385   28.9472 H   0  0  0  0  0  0  0  0  0  0  0  0
   -0.7899   -4.2914   29.7729 H   0  0  0  0  0  0  0  0  0  0  0  0
    1.3813   -5.7868   29.4478 H   0  0  0  0  0  0  0  0  0  0  0  0
    2.0943   -4.8340   30.7394 H   0  0  0  0  0  0  0  0  0  0  0  0
   -0.4254   -6.1266   35.4999 H   0  0  0  0  0  0  0  0  0  0  0  0
    0.7305   -7.4841   35.4013 H   0  0  0  0  0  0  0  0  0  0  0  0
    1.2777   -5.8253   35.1003 H   0  0  0  0  0  0  0  0  0  0  0  0
   -1.4536   -8.1198   33.8734 H   0  0  0  0  0  0  0  0  0  0  0  0
   -2.5602   -8.8974   32.0301 H   0  0  0  0  0  0  0  0  0  0  0  0
   -1.8575   -1.8006   34.3125 H   0  0  0  0  0  0  0  0  0  0  0  0
   -1.1890   -0.1900   33.9080 H   0  0  0  0  0  0  0  0  0  0  0  0
  1  2  1  0
  2  3  2  0
  3  4  1  0
  4  5  2  0
  5  6  1  0
  6  7  1  0
  7  8  1  0
  8  9  2  0
  8 10  1  0
 10 11  1  0
 11 12  1  0
 12 13  1  0
 13 14  1  0
 14 15  1  0
 15 16  1  0
 16 17  1  0
 17 18  1  0
 18 19  1  0
 19 20  1  0
 20 21  2  0
 20 22  2  0
 20 23  1  0
 23 24  1  0
 24 25  1  0
 25 26  1  0
 26 27  2  0
 27 28  1  0
 28 29  1  0
 28 30  2  0
 30 31  1  0
 31 32  1  0
 31 33  2  0
 19 34  1  0
  6 35  2  0
 35  2  1  0
 14 10  1  0
 34 16  1  0
 33 26  1  0
  1 36  1  0
  1 37  1  0
  1 38  1  0
  3 39  1  0
  4 40  1  0
  5 41  1  0
  7 42  1  0
 10 43  1  0
 11 44  1  0
 11 45  1  0
 12 46  1  0
 12 47  1  0
 13 48  1  0
 13 49  1  0
 15 50  1  0
 16 51  1  0
 17 52  1  0
 17 53  1  0
 18 54  1  0
 18 55  1  0
 23 56  1  0
 24 57  1  0
 24 58  1  0
 25 59  1  0
 25 60  1  0
 29 61  1  0
 29 62  1  0
 29 63  1  0
 30 64  1  0
 32 65  1  0
 34 66  1  0
 34 67  1  0
M  END
>  <Energy>  (880) 
-145.21547138817178

>  <compound_id>  (880) 
2928

>  <target_id>  (880) 
1

>  <reference_id>  (880) 
189

>  <inspiration_ids>  (880) 
[189, 150]

>  <energy_score>  (880) 
-89.80372669267433

>  <distance_score>  (880) 
1.7454740539262437

>  <path>  (880) 
/opt/xchem-fragalysis-2/maxwin/BulkDock/SCRATCH/505736/C2928-P189/C2928-P189.minimised.mol

>  <scratch_subdir>  (880) 
/opt/xchem-fragalysis-2/maxwin/BulkDock/SCRATCH/505736/C2928-P189

>  <fragmenstein_runtime>  (880) 
20.050470113754272

>  <fragmenstein_outcome>  (880) 
too moved

>  <fragmenstein_mode>  (880) 
expansion

>  <fragmenstein_error>  (880) 


$$$$
C2928-P150
     RDKit          3D

 67 70  0  0  0  0  0  0  0  0999 V2000
    1.1847   -6.8337   38.4441 C   0  0  0  0  0  0  0  0  0  0  0  0
    0.1796   -6.5625   39.5082 C   0  0  0  0  0  0  0  0  0  0  0  0
   -0.0741   -7.4898   40.5065 C   0  0  0  0  0  0  0  0  0  0  0  0
   -1.1008   -7.2233   41.4038 C   0  0  0  0  0  0  0  0  0  0  0  0
   -1.8703   -6.0705   41.2388 C   0  0  0  0  0  0  0  0  0  0  0  0
   -1.5236   -5.1871   40.2299 C   0  0  0  0  0  0  0  0  0  0  0  0
   -2.3157   -4.1113   39.8995 N   0  0  0  0  0  0  0  0  0  0  0  0
   -1.9390   -2.7281   39.2713 C   0  0  0  0  0  0  0  0  0  0  0  0
   -0.8908   -2.2716   39.0149 O   0  0  0  0  0  0  0  0  0  0  0  0
   -3.2744   -2.0195   38.9057 C   0  0  0  0  0  0  0  0  0  0  0  0
   -3.5382   -0.7294   39.6659 C   0  0  0  0  0  0  0  0  0  0  0  0
   -4.4973    0.0438   38.7636 C   0  0  0  0  0  0  0  0  0  0  0  0
   -4.5966   -0.7686   37.4709 C   0  0  0  0  0  0  0  0  0  0  0  0
   -3.4056   -1.6505   37.4385 N   0  0  0  0  0  0  0  0  0  0  0  0
   -2.2574   -0.8464   37.0124 N   0  0  0  0  0  0  0  0  0  0  0  0
   -1.4605   -1.4469   35.9321 C   0  0  0  0  0  0  0  0  0  0  0  0
   -1.0683   -2.9195   36.0004 C   0  0  0  0  0  0  0  0  0  0  0  0
   -0.5470   -3.2249   34.5920 C   0  0  0  0  0  0  0  0  0  0  0  0
   -0.9933   -2.1077   33.7272 N   0  0  0  0  0  0  0  0  0  0  0  0
   -1.3350   -2.4176   32.1267 S   0  0  0  0  0  0  0  0  0  0  0  0
   -2.2814   -3.4999   32.0136 O   0  0  0  0  0  0  0  0  0  0  0  0
   -1.5352   -1.1424   31.4898 O   0  0  0  0  0  0  0  0  0  0  0  0
    0.1699   -2.9597   31.6317 N   0  0  0  0  0  0  0  0  0  0  0  0
    0.2039   -3.7936   30.4042 C   0  0  0  0  0  0  0  0  0  0  0  0
    1.0791   -5.0231   30.6377 C   0  0  0  0  0  0  0  0  0  0  0  0
    0.4344   -5.9923   31.5901 C   0  0  0  0  0  0  0  0  0  0  0  0
    0.8045   -5.9332   32.8835 N   0  0  0  0  0  0  0  0  0  0  0  0
    0.1091   -6.6896   33.7552 C   0  0  0  0  0  0  0  0  0  0  0  0
    0.4691   -6.5797   35.1993 C   0  0  0  0  0  0  0  0  0  0  0  0
   -0.8918   -7.5431   33.3617 C   0  0  0  0  0  0  0  0  0  0  0  0
   -1.1140   -7.5957   32.0137 C   0  0  0  0  0  0  0  0  0  0  0  0
   -2.0330   -8.4506   31.4931 O   0  0  0  0  0  0  0  0  0  0  0  0
   -0.4806   -6.8454   31.1034 N   0  0  0  0  0  0  0  0  0  0  0  0
   -2.0052   -1.3429   34.4991 C   0  0  0  0  0  0  0  0  0  0  0  0
   -0.4992   -5.4078   39.3970 N   0  0  0  0  0  0  0  0  0  0  0  0
    2.1543   -7.0741   38.8921 H   0  0  0  0  0  0  0  0  0  0  0  0
    1.3256   -5.9588   37.8035 H   0  0  0  0  0  0  0  0  0  0  0  0
    0.8606   -7.6817   37.8353 H   0  0  0  0  0  0  0  0  0  0  0  0
    0.4940   -8.4111   40.5707 H   0  0  0  0  0  0  0  0  0  0  0  0
   -1.3402   -7.9315   42.1914 H   0  0  0  0  0  0  0  0  0  0  0  0
   -2.7228   -5.8806   41.8800 H   0  0  0  0  0  0  0  0  0  0  0  0
   -3.3113   -4.1495   40.0605 H   0  0  0  0  0  0  0  0  0  0  0  0
   -4.1088   -2.7046   39.1004 H   0  0  0  0  0  0  0  0  0  0  0  0
   -3.9826   -0.9250   40.6474 H   0  0  0  0  0  0  0  0  0  0  0  0
   -2.6195   -0.1541   39.8299 H   0  0  0  0  0  0  0  0  0  0  0  0
   -5.4812    0.1574   39.2305 H   0  0  0  0  0  0  0  0  0  0  0  0
   -4.0994    1.0461   38.5690 H   0  0  0  0  0  0  0  0  0  0  0  0
   -4.6940   -0.1343   36.5820 H   0  0  0  0  0  0  0  0  0  0  0  0
   -5.4937   -1.4003   37.5018 H   0  0  0  0  0  0  0  0  0  0  0  0
   -2.4896    0.1141   36.7536 H   0  0  0  0  0  0  0  0  0  0  0  0
   -0.5177   -0.8792   35.9492 H   0  0  0  0  0  0  0  0  0  0  0  0
   -0.2967   -3.1254   36.7471 H   0  0  0  0  0  0  0  0  0  0  0  0
   -1.9266   -3.5597   36.2238 H   0  0  0  0  0  0  0  0  0  0  0  0
    0.5473   -3.2580   34.5871 H   0  0  0  0  0  0  0  0  0  0  0  0
   -0.9332   -4.1827   34.2477 H   0  0  0  0  0  0  0  0  0  0  0  0
    0.7889   -2.1511   31.5835 H   0  0  0  0  0  0  0  0  0  0  0  0
    0.6344   -3.1857   29.6002 H   0  0  0  0  0  0  0  0  0  0  0  0
   -0.7969   -4.0930   30.0812 H   0  0  0  0  0  0  0  0  0  0  0  0
    1.2644   -5.5338   29.6879 H   0  0  0  0  0  0  0  0  0  0  0  0
    2.0550   -4.7169   31.0320 H   0  0  0  0  0  0  0  0  0  0  0  0
    1.1906   -5.7725   35.3595 H   0  0  0  0  0  0  0  0  0  0  0  0
   -0.4196   -6.3704   35.8031 H   0  0  0  0  0  0  0  0  0  0  0  0
    0.9249   -7.5168   35.5306 H   0  0  0  0  0  0  0  0  0  0  0  0
   -1.4380   -8.1457   34.0734 H   0  0  0  0  0  0  0  0  0  0  0  0
   -2.5489   -8.8677   32.2119 H   0  0  0  0  0  0  0  0  0  0  0  0
   -2.9959   -1.8025   34.4094 H   0  0  0  0  0  0  0  0  0  0  0  0
   -2.0437   -0.3018   34.1656 H   0  0  0  0  0  0  0  0  0  0  0  0
  1  2  1  0
  2  3  2  0
  3  4  1  0
  4  5  2  0
  5  6  1  0
  6  7  1  0
  7  8  1  0
  8  9  2  0
  8 10  1  0
 10 11  1  0
 11 12  1  0
 12 13  1  0
 13 14  1  0
 14 15  1  0
 15 16  1  0
 16 17  1  0
 17 18  1  0
 18 19  1  0
 19 20  1  0
 20 21  2  0
 20 22  2  0
 20 23  1  0
 23 24  1  0
 24 25  1  0
 25 26  1  0
 26 27  2  0
 27 28  1  0
 28 29  1  0
 28 30  2  0
 30 31  1  0
 31 32  1  0
 31 33  2  0
 19 34  1  0
  6 35  2  0
 35  2  1  0
 14 10  1  0
 34 16  1  0
 33 26  1  0
  1 36  1  0
  1 37  1  0
  1 38  1  0
  3 39  1  0
  4 40  1  0
  5 41  1  0
  7 42  1  0
 10 43  1  0
 11 44  1  0
 11 45  1  0
 12 46  1  0
 12 47  1  0
 13 48  1  0
 13 49  1  0
 15 50  1  0
 16 51  1  0
 17 52  1  0
 17 53  1  0
 18 54  1  0
 18 55  1  0
 23 56  1  0
 24 57  1  0
 24 58  1  0
 25 59  1  0
 25 60  1  0
 29 61  1  0
 29 62  1  0
 29 63  1  0
 30 64  1  0
 32 65  1  0
 34 66  1  0
 34 67  1  0
M  END
>  <Energy>  (881) 
-107.51972929274586

>  <compound_id>  (881) 
2928

>  <target_id>  (881) 
1

>  <reference_id>  (881) 
150

>  <inspiration_ids>  (881) 
[189, 150]

>  <energy_score>  (881) 
-73.32866609063583

>  <distance_score>  (881) 
1.4026510404242452

>  <path>  (881) 
/opt/xchem-fragalysis-2/maxwin/BulkDock/SCRATCH/505736/C2928-P150/C2928-P150.minimised.mol

>  <scratch_subdir>  (881) 
/opt/xchem-fragalysis-2/maxwin/BulkDock/SCRATCH/505736/C2928-P150

>  <fragmenstein_runtime>  (881) 
16.226497173309326

>  <fragmenstein_outcome>  (881) 
too moved

>  <fragmenstein_mode>  (881) 
expansion

>  <fragmenstein_error>  (881) 


$$$$
C2930-P189
     RDKit          3D

 66 68  0  0  0  0  0  0  0  0999 V2000
    7.5006   -4.9365   28.7525 C   0  0  0  0  0  0  0  0  0  0  0  0
    7.9069   -5.5155   30.0972 C   0  0  0  0  0  0  0  0  0  0  0  0
    6.9937   -5.0595   31.2368 C   0  0  0  0  0  0  0  0  0  0  0  0
    6.0753   -4.3170   31.0349 O   0  0  0  0  0  0  0  0  0  0  0  0
    7.4629   -5.6722   32.4601 N   0  0  0  0  0  0  0  0  0  0  0  0
    6.9332   -5.6583   33.7669 C   0  0  0  0  0  0  0  0  0  0  0  0
    7.7143   -6.4459   34.6515 C   0  0  0  0  0  0  0  0  0  0  0  0
    8.7947   -7.1283   34.1272 O   0  0  0  0  0  0  0  0  0  0  0  0
    7.4471   -6.5492   36.0143 C   0  0  0  0  0  0  0  0  0  0  0  0
    6.3701   -5.8523   36.5456 C   0  0  0  0  0  0  0  0  0  0  0  0
    6.0839   -5.8826   38.0179 C   0  0  0  0  0  0  0  0  0  0  0  0
    5.5853   -5.0691   35.6878 C   0  0  0  0  0  0  0  0  0  0  0  0
    5.8139   -4.9826   34.2877 C   0  0  0  0  0  0  0  0  0  0  0  0
    4.8548   -4.1580   33.4532 C   0  0  0  0  0  0  0  0  0  0  0  0
    3.5791   -3.8367   34.1282 N   0  0  0  0  0  0  0  0  0  0  0  0
    2.7170   -3.0244   33.2681 C   0  0  0  0  0  0  0  0  0  0  0  0
    3.0689   -1.5417   33.2351 C   0  0  0  0  0  0  0  0  0  0  0  0
    1.8073   -0.8968   32.6530 C   0  0  0  0  0  0  0  0  0  0  0  0
    0.6898   -1.8292   32.9768 N   0  0  0  0  0  0  0  0  0  0  0  0
   -0.3766   -2.2358   31.7374 S   0  0  0  0  0  0  0  0  0  0  0  0
   -1.2875   -3.2627   32.1808 O   0  0  0  0  0  0  0  0  0  0  0  0
   -0.8250   -1.0113   31.1251 O   0  0  0  0  0  0  0  0  0  0  0  0
    0.7226   -2.9037   30.6512 N   0  0  0  0  0  0  0  0  0  0  0  0
    0.3178   -4.1263   29.9148 C   0  0  0  0  0  0  0  0  0  0  0  0
    1.1777   -5.3215   30.3311 C   0  0  0  0  0  0  0  0  0  0  0  0
    0.4945   -6.1919   31.3482 C   0  0  0  0  0  0  0  0  0  0  0  0
    0.8803   -6.1016   32.6367 N   0  0  0  0  0  0  0  0  0  0  0  0
    0.1526   -6.7872   33.5440 C   0  0  0  0  0  0  0  0  0  0  0  0
    0.4991   -6.6195   34.9935 C   0  0  0  0  0  0  0  0  0  0  0  0
   -0.8908   -7.6077   33.1801 C   0  0  0  0  0  0  0  0  0  0  0  0
   -1.1203   -7.7091   31.8339 C   0  0  0  0  0  0  0  0  0  0  0  0
   -2.0671   -8.5494   31.3367 O   0  0  0  0  0  0  0  0  0  0  0  0
   -0.4569   -7.0252   30.8977 N   0  0  0  0  0  0  0  0  0  0  0  0
    1.2632   -2.9487   33.7525 C   0  0  0  0  0  0  0  0  0  0  0  0
    8.1744   -5.2903   27.9663 H   0  0  0  0  0  0  0  0  0  0  0  0
    6.4806   -5.2347   28.4886 H   0  0  0  0  0  0  0  0  0  0  0  0
    7.5374   -3.8424   28.7679 H   0  0  0  0  0  0  0  0  0  0  0  0
    7.8740   -6.6097   30.0403 H   0  0  0  0  0  0  0  0  0  0  0  0
    8.9332   -5.2082   30.3281 H   0  0  0  0  0  0  0  0  0  0  0  0
    8.2216   -6.3126   32.2419 H   0  0  0  0  0  0  0  0  0  0  0  0
    9.2678   -7.5550   34.8620 H   0  0  0  0  0  0  0  0  0  0  0  0
    8.0742   -7.1513   36.6644 H   0  0  0  0  0  0  0  0  0  0  0  0
    5.0073   -5.8142   38.2065 H   0  0  0  0  0  0  0  0  0  0  0  0
    6.4324   -6.8190   38.4660 H   0  0  0  0  0  0  0  0  0  0  0  0
    6.5857   -5.0461   38.5139 H   0  0  0  0  0  0  0  0  0  0  0  0
    4.7653   -4.5025   36.1313 H   0  0  0  0  0  0  0  0  0  0  0  0
    5.3643   -3.2352   33.1591 H   0  0  0  0  0  0  0  0  0  0  0  0
    4.5737   -4.7586   32.5869 H   0  0  0  0  0  0  0  0  0  0  0  0
    3.1056   -4.7272   34.2875 H   0  0  0  0  0  0  0  0  0  0  0  0
    2.7302   -3.4258   32.2496 H   0  0  0  0  0  0  0  0  0  0  0  0
    3.2476   -1.1576   34.2477 H   0  0  0  0  0  0  0  0  0  0  0  0
    3.9544   -1.3207   32.6315 H   0  0  0  0  0  0  0  0  0  0  0  0
    1.9254   -0.7534   31.5750 H   0  0  0  0  0  0  0  0  0  0  0  0
    1.6181    0.0815   33.1052 H   0  0  0  0  0  0  0  0  0  0  0  0
    0.9577   -2.1463   30.0043 H   0  0  0  0  0  0  0  0  0  0  0  0
    0.5158   -3.9137   28.8564 H   0  0  0  0  0  0  0  0  0  0  0  0
   -0.7549   -4.3185   29.9864 H   0  0  0  0  0  0  0  0  0  0  0  0
    1.3751   -5.9455   29.4520 H   0  0  0  0  0  0  0  0  0  0  0  0
    2.1582   -5.0064   30.7037 H   0  0  0  0  0  0  0  0  0  0  0  0
   -0.3178   -6.1155   35.5194 H   0  0  0  0  0  0  0  0  0  0  0  0
    1.4059   -6.0201   35.1123 H   0  0  0  0  0  0  0  0  0  0  0  0
    0.6776   -7.5951   35.4567 H   0  0  0  0  0  0  0  0  0  0  0  0
   -1.4667   -8.1488   33.9150 H   0  0  0  0  0  0  0  0  0  0  0  0
   -2.6046   -8.9153   32.0629 H   0  0  0  0  0  0  0  0  0  0  0  0
    0.7209   -3.8805   33.6217 H   0  0  0  0  0  0  0  0  0  0  0  0
    1.2046   -2.6923   34.8180 H   0  0  0  0  0  0  0  0  0  0  0  0
  1  2  1  0
  2  3  1  0
  3  4  2  0
  3  5  1  0
  5  6  1  0
  6  7  2  0
  7  8  1  0
  7  9  1  0
  9 10  2  0
 10 11  1  0
 10 12  1  0
 12 13  2  0
 13 14  1  0
 14 15  1  0
 15 16  1  0
 16 17  1  0
 17 18  1  0
 18 19  1  0
 19 20  1  0
 20 21  2  0
 20 22  2  0
 20 23  1  0
 23 24  1  0
 24 25  1  0
 25 26  1  0
 26 27  2  0
 27 28  1  0
 28 29  1  0
 28 30  2  0
 30 31  1  0
 31 32  1  0
 31 33  2  0
 19 34  1  0
 13  6  1  0
 34 16  1  0
 33 26  1  0
  1 35  1  0
  1 36  1  0
  1 37  1  0
  2 38  1  0
  2 39  1  0
  5 40  1  0
  8 41  1  0
  9 42  1  0
 11 43  1  0
 11 44  1  0
 11 45  1  0
 12 46  1  0
 14 47  1  0
 14 48  1  0
 15 49  1  0
 16 50  1  0
 17 51  1  0
 17 52  1  0
 18 53  1  0
 18 54  1  0
 23 55  1  0
 24 56  1  0
 24 57  1  0
 25 58  1  0
 25 59  1  0
 29 60  1  0
 29 61  1  0
 29 62  1  0
 30 63  1  0
 32 64  1  0
 34 65  1  0
 34 66  1  0
M  END
>  <Energy>  (882) 
-185.28738674106677

>  <compound_id>  (882) 
2930

>  <target_id>  (882) 
1

>  <reference_id>  (882) 
189

>  <inspiration_ids>  (882) 
[189, 156]

>  <energy_score>  (882) 
-95.7763070635474

>  <distance_score>  (882) 
1.3104918645121213

>  <path>  (882) 
/opt/xchem-fragalysis-2/maxwin/BulkDock/SCRATCH/505736/C2930-P189/C2930-P189.minimised.mol

>  <scratch_subdir>  (882) 
/opt/xchem-fragalysis-2/maxwin/BulkDock/SCRATCH/505736/C2930-P189

>  <fragmenstein_runtime>  (882) 
16.503962993621826

>  <fragmenstein_outcome>  (882) 
too moved

>  <fragmenstein_mode>  (882) 
expansion

>  <fragmenstein_error>  (882) 


$$$$
C2930-P156
     RDKit          3D

 66 68  0  0  0  0  0  0  0  0999 V2000
    3.5886   -0.1330   37.8035 C   0  0  0  0  0  0  0  0  0  0  0  0
    4.0267   -1.5826   37.9254 C   0  0  0  0  0  0  0  0  0  0  0  0
    4.8129   -2.0657   36.7057 C   0  0  0  0  0  0  0  0  0  0  0  0
    5.0758   -1.3215   35.8044 O   0  0  0  0  0  0  0  0  0  0  0  0
    5.1232   -3.4670   36.8964 N   0  0  0  0  0  0  0  0  0  0  0  0
    5.7415   -4.3965   36.0476 C   0  0  0  0  0  0  0  0  0  0  0  0
    6.4422   -5.4316   36.6950 C   0  0  0  0  0  0  0  0  0  0  0  0
    6.5997   -5.4230   38.0586 O   0  0  0  0  0  0  0  0  0  0  0  0
    7.0597   -6.4657   36.0006 C   0  0  0  0  0  0  0  0  0  0  0  0
    7.0194   -6.4768   34.6094 C   0  0  0  0  0  0  0  0  0  0  0  0
    7.6763   -7.5865   33.8434 C   0  0  0  0  0  0  0  0  0  0  0  0
    6.3083   -5.4656   33.9482 C   0  0  0  0  0  0  0  0  0  0  0  0
    5.6414   -4.4267   34.6452 C   0  0  0  0  0  0  0  0  0  0  0  0
    4.7670   -3.5069   33.8170 C   0  0  0  0  0  0  0  0  0  0  0  0
    3.3549   -3.6447   34.1863 N   0  0  0  0  0  0  0  0  0  0  0  0
    2.4698   -2.8692   33.3220 C   0  0  0  0  0  0  0  0  0  0  0  0
    2.6404   -1.3540   33.3587 C   0  0  0  0  0  0  0  0  0  0  0  0
    1.3553   -0.8480   32.6964 C   0  0  0  0  0  0  0  0  0  0  0  0
    0.3348   -1.9067   32.9406 N   0  0  0  0  0  0  0  0  0  0  0  0
   -0.6240   -2.3905   31.6441 S   0  0  0  0  0  0  0  0  0  0  0  0
   -1.4649   -3.5004   32.0245 O   0  0  0  0  0  0  0  0  0  0  0  0
   -1.1425   -1.2056   31.0104 O   0  0  0  0  0  0  0  0  0  0  0  0
    0.5929   -2.9478   30.6159 N   0  0  0  0  0  0  0  0  0  0  0  0
    0.3370   -4.2002   29.8605 C   0  0  0  0  0  0  0  0  0  0  0  0
    1.2007   -5.3512   30.3801 C   0  0  0  0  0  0  0  0  0  0  0  0
    0.5040   -6.2008   31.4059 C   0  0  0  0  0  0  0  0  0  0  0  0
    0.9361   -6.1440   32.6821 N   0  0  0  0  0  0  0  0  0  0  0  0
    0.2069   -6.8057   33.6069 C   0  0  0  0  0  0  0  0  0  0  0  0
    0.6050   -6.6578   35.0455 C   0  0  0  0  0  0  0  0  0  0  0  0
   -0.8787   -7.5822   33.2689 C   0  0  0  0  0  0  0  0  0  0  0  0
   -1.1466   -7.6661   31.9281 C   0  0  0  0  0  0  0  0  0  0  0  0
   -2.1259   -8.4793   31.4503 O   0  0  0  0  0  0  0  0  0  0  0  0
   -0.4848   -6.9993   30.9773 N   0  0  0  0  0  0  0  0  0  0  0  0
    0.9913   -2.9765   33.7199 C   0  0  0  0  0  0  0  0  0  0  0  0
    3.0274    0.1709   38.6924 H   0  0  0  0  0  0  0  0  0  0  0  0
    4.4522    0.5321   37.7002 H   0  0  0  0  0  0  0  0  0  0  0  0
    2.9471    0.0108   36.9276 H   0  0  0  0  0  0  0  0  0  0  0  0
    4.6585   -1.6960   38.8137 H   0  0  0  0  0  0  0  0  0  0  0  0
    3.1402   -2.2162   38.0441 H   0  0  0  0  0  0  0  0  0  0  0  0
    4.8139   -3.7524   37.8182 H   0  0  0  0  0  0  0  0  0  0  0  0
    6.7548   -4.4913   38.2947 H   0  0  0  0  0  0  0  0  0  0  0  0
    7.5917   -7.2381   36.5496 H   0  0  0  0  0  0  0  0  0  0  0  0
    8.6478   -7.8364   34.2829 H   0  0  0  0  0  0  0  0  0  0  0  0
    7.0397   -8.4765   33.8535 H   0  0  0  0  0  0  0  0  0  0  0  0
    7.8549   -7.2979   32.8030 H   0  0  0  0  0  0  0  0  0  0  0  0
    6.2483   -5.5005   32.8611 H   0  0  0  0  0  0  0  0  0  0  0  0
    5.1367   -2.4837   33.8868 H   0  0  0  0  0  0  0  0  0  0  0  0
    4.8721   -3.7709   32.7561 H   0  0  0  0  0  0  0  0  0  0  0  0
    3.0975   -4.6292   34.1137 H   0  0  0  0  0  0  0  0  0  0  0  0
    2.5956   -3.2181   32.2908 H   0  0  0  0  0  0  0  0  0  0  0  0
    2.6905   -0.9891   34.3919 H   0  0  0  0  0  0  0  0  0  0  0  0
    3.5328   -1.0039   32.8314 H   0  0  0  0  0  0  0  0  0  0  0  0
    1.5273   -0.6845   31.6284 H   0  0  0  0  0  0  0  0  0  0  0  0
    1.0266    0.0977   33.1375 H   0  0  0  0  0  0  0  0  0  0  0  0
    0.7624   -2.1665   29.9754 H   0  0  0  0  0  0  0  0  0  0  0  0
    0.6442   -3.9875   28.8283 H   0  0  0  0  0  0  0  0  0  0  0  0
   -0.7255   -4.4400   29.8083 H   0  0  0  0  0  0  0  0  0  0  0  0
    1.4585   -6.0099   29.5436 H   0  0  0  0  0  0  0  0  0  0  0  0
    2.1517   -4.9837   30.7819 H   0  0  0  0  0  0  0  0  0  0  0  0
   -0.1683   -6.1130   35.5951 H   0  0  0  0  0  0  0  0  0  0  0  0
    1.5447   -6.1055   35.1354 H   0  0  0  0  0  0  0  0  0  0  0  0
    0.7473   -7.6408   35.5043 H   0  0  0  0  0  0  0  0  0  0  0  0
   -1.4508   -8.1136   34.0148 H   0  0  0  0  0  0  0  0  0  0  0  0
   -2.6655   -8.8296   32.1826 H   0  0  0  0  0  0  0  0  0  0  0  0
    0.5657   -3.9551   33.5307 H   0  0  0  0  0  0  0  0  0  0  0  0
    0.8434   -2.7647   34.7868 H   0  0  0  0  0  0  0  0  0  0  0  0
  1  2  1  0
  2  3  1  0
  3  4  2  0
  3  5  1  0
  5  6  1  0
  6  7  2  0
  7  8  1  0
  7  9  1  0
  9 10  2  0
 10 11  1  0
 10 12  1  0
 12 13  2  0
 13 14  1  0
 14 15  1  0
 15 16  1  0
 16 17  1  0
 17 18  1  0
 18 19  1  0
 19 20  1  0
 20 21  2  0
 20 22  2  0
 20 23  1  0
 23 24  1  0
 24 25  1  0
 25 26  1  0
 26 27  2  0
 27 28  1  0
 28 29  1  0
 28 30  2  0
 30 31  1  0
 31 32  1  0
 31 33  2  0
 19 34  1  0
 13  6  1  0
 34 16  1  0
 33 26  1  0
  1 35  1  0
  1 36  1  0
  1 37  1  0
  2 38  1  0
  2 39  1  0
  5 40  1  0
  8 41  1  0
  9 42  1  0
 11 43  1  0
 11 44  1  0
 11 45  1  0
 12 46  1  0
 14 47  1  0
 14 48  1  0
 15 49  1  0
 16 50  1  0
 17 51  1  0
 17 52  1  0
 18 53  1  0
 18 54  1  0
 23 55  1  0
 24 56  1  0
 24 57  1  0
 25 58  1  0
 25 59  1  0
 29 60  1  0
 29 61  1  0
 29 62  1  0
 30 63  1  0
 32 64  1  0
 34 65  1  0
 34 66  1  0
M  END
>  <Energy>  (883) 
-179.3361583978392

>  <compound_id>  (883) 
2930

>  <target_id>  (883) 
1

>  <reference_id>  (883) 
156

>  <inspiration_ids>  (883) 
[189, 156]

>  <energy_score>  (883) 
-89.82507872032045

>  <distance_score>  (883) 
1.3799615085339556

>  <path>  (883) 
/opt/xchem-fragalysis-2/maxwin/BulkDock/SCRATCH/505736/C2930-P156/C2930-P156.minimised.mol

>  <scratch_subdir>  (883) 
/opt/xchem-fragalysis-2/maxwin/BulkDock/SCRATCH/505736/C2930-P156

>  <fragmenstein_runtime>  (883) 
14.686501741409302

>  <fragmenstein_outcome>  (883) 
too moved

>  <fragmenstein_mode>  (883) 
expansion

>  <fragmenstein_error>  (883) 


$$$$
C1028-P189
     RDKit          3D

 47 49  0  0  0  0  0  0  0  0999 V2000
    2.8202   -3.1314   30.2934 C   0  0  0  0  0  0  0  0  0  0  0  0
    2.1672   -3.3848   28.9318 C   0  0  0  0  0  0  0  0  0  0  0  0
    3.2450   -3.9031   27.9758 C   0  0  0  0  0  0  0  0  0  0  0  0
    1.2307   -4.4340   29.0995 O   0  0  0  0  0  0  0  0  0  0  0  0
    0.0358   -4.0933   29.6008 C   0  0  0  0  0  0  0  0  0  0  0  0
   -0.7617   -4.9361   29.9581 O   0  0  0  0  0  0  0  0  0  0  0  0
   -0.2549   -2.6727   29.7591 C   0  0  0  0  0  0  0  0  0  0  0  0
    0.4128   -1.8421   28.8778 C   0  0  0  0  0  0  0  0  0  0  0  0
   -0.1075   -0.5965   28.5864 C   0  0  0  0  0  0  0  0  0  0  0  0
   -1.1716   -0.1268   29.3384 C   0  0  0  0  0  0  0  0  0  0  0  0
   -1.6838    1.0727   28.9328 O   0  0  0  0  0  0  0  0  0  0  0  0
   -1.6248   -0.8633   30.4541 C   0  0  0  0  0  0  0  0  0  0  0  0
   -2.7356   -0.0431   31.7476 Br  0  0  0  0  0  0  0  0  0  0  0  0
   -1.1981   -2.1901   30.6731 C   0  0  0  0  0  0  0  0  0  0  0  0
   -1.8132   -3.1263   31.7255 C   0  0  0  0  0  0  0  0  0  0  0  0
   -0.9155   -4.1781   32.4568 C   0  0  0  0  0  0  0  0  0  0  0  0
   -1.6397   -5.3735   32.8868 N   0  0  0  0  0  0  0  0  0  0  0  0
   -1.0079   -6.9006   33.0350 S   0  0  0  0  0  0  0  0  0  0  0  0
   -0.8769   -7.5061   31.7348 O   0  0  0  0  0  0  0  0  0  0  0  0
   -1.7742   -7.5116   34.0953 O   0  0  0  0  0  0  0  0  0  0  0  0
    0.4968   -6.5806   33.6389 N   0  0  0  0  0  0  0  0  0  0  0  0
    0.6288   -5.9175   34.9439 C   0  0  0  0  0  0  0  0  0  0  0  0
    1.9871   -5.2318   34.8718 C   0  0  0  0  0  0  0  0  0  0  0  0
    2.1817   -4.9382   33.3965 C   0  0  0  0  0  0  0  0  0  0  0  0
    1.5638   -6.1520   32.7382 C   0  0  0  0  0  0  0  0  0  0  0  0
    1.6112   -2.2075   28.3300 O   0  0  0  0  0  0  0  0  0  0  0  0
    2.1095   -2.7642   31.0395 H   0  0  0  0  0  0  0  0  0  0  0  0
    3.6011   -2.3673   30.2112 H   0  0  0  0  0  0  0  0  0  0  0  0
    3.2623   -4.0483   30.6975 H   0  0  0  0  0  0  0  0  0  0  0  0
    2.8107   -4.1842   27.0120 H   0  0  0  0  0  0  0  0  0  0  0  0
    3.7337   -4.8005   28.3715 H   0  0  0  0  0  0  0  0  0  0  0  0
    4.0036   -3.1382   27.7786 H   0  0  0  0  0  0  0  0  0  0  0  0
    0.3264    0.0172   27.8031 H   0  0  0  0  0  0  0  0  0  0  0  0
   -2.5135    1.2432   29.4097 H   0  0  0  0  0  0  0  0  0  0  0  0
   -2.6251   -3.6161   31.1966 H   0  0  0  0  0  0  0  0  0  0  0  0
   -2.2947   -2.5579   32.5257 H   0  0  0  0  0  0  0  0  0  0  0  0
   -0.5587   -3.6745   33.3647 H   0  0  0  0  0  0  0  0  0  0  0  0
   -0.0204   -4.4121   31.9113 H   0  0  0  0  0  0  0  0  0  0  0  0
   -2.1923   -5.1788   33.7327 H   0  0  0  0  0  0  0  0  0  0  0  0
    0.5987   -6.6498   35.7559 H   0  0  0  0  0  0  0  0  0  0  0  0
   -0.1571   -5.1764   35.1119 H   0  0  0  0  0  0  0  0  0  0  0  0
    2.0346   -4.3330   35.4933 H   0  0  0  0  0  0  0  0  0  0  0  0
    2.7684   -5.9198   35.2184 H   0  0  0  0  0  0  0  0  0  0  0  0
    1.6791   -4.0064   33.1327 H   0  0  0  0  0  0  0  0  0  0  0  0
    3.2387   -4.8223   33.1381 H   0  0  0  0  0  0  0  0  0  0  0  0
    1.2786   -5.9904   31.6990 H   0  0  0  0  0  0  0  0  0  0  0  0
    2.3123   -6.9295   32.7504 H   0  0  0  0  0  0  0  0  0  0  0  0
  1  2  1  0
  2  3  1  0
  2  4  1  0
  4  5  1  0
  5  6  2  0
  5  7  1  0
  7  8  2  0
  8  9  1  0
  9 10  2  0
 10 11  1  0
 10 12  1  0
 12 13  1  0
 12 14  2  0
 14 15  1  0
 15 16  1  0
 16 17  1  0
 17 18  1  0
 18 19  2  0
 18 20  2  0
 18 21  1  0
 21 22  1  0
 22 23  1  0
 23 24  1  0
 24 25  1  0
  8 26  1  0
 26  2  1  0
 14  7  1  0
 25 21  1  0
  1 27  1  0
  1 28  1  0
  1 29  1  0
  3 30  1  0
  3 31  1  0
  3 32  1  0
  9 33  1  0
 11 34  1  0
 15 35  1  0
 15 36  1  0
 16 37  1  0
 16 38  1  0
 17 39  1  0
 22 40  1  0
 22 41  1  0
 23 42  1  0
 23 43  1  0
 24 44  1  0
 24 45  1  0
 25 46  1  0
 25 47  1  0
M  END
>  <Energy>  (884) 
-110.28008302611059

>  <compound_id>  (884) 
1028

>  <target_id>  (884) 
1

>  <reference_id>  (884) 
189

>  <inspiration_ids>  (884) 
[189, 159]

>  <energy_score>  (884) 
-28.32716249851017

>  <distance_score>  (884) 
2.399683674548224

>  <path>  (884) 
/opt/xchem-fragalysis-2/maxwin/BulkDock/SCRATCH/505736/C1028-P189/C1028-P189.minimised.mol

>  <scratch_subdir>  (884) 
/opt/xchem-fragalysis-2/maxwin/BulkDock/SCRATCH/505736/C1028-P189

>  <fragmenstein_runtime>  (884) 
9.382448196411133

>  <fragmenstein_outcome>  (884) 
too moved

>  <fragmenstein_mode>  (884) 
expansion

>  <fragmenstein_error>  (884) 


$$$$
C1028-P159
     RDKit          3D

 47 49  0  0  0  0  0  0  0  0999 V2000
    3.8498   -3.3896   29.2199 C   0  0  0  0  0  0  0  0  0  0  0  0
    2.3575   -3.3055   29.4468 C   0  0  0  0  0  0  0  0  0  0  0  0
    1.7544   -4.5638   28.8320 C   0  0  0  0  0  0  0  0  0  0  0  0
    2.2316   -3.3376   30.8745 O   0  0  0  0  0  0  0  0  0  0  0  0
    1.1541   -2.7623   31.4065 C   0  0  0  0  0  0  0  0  0  0  0  0
    0.9215   -2.6825   32.6015 O   0  0  0  0  0  0  0  0  0  0  0  0
    0.1629   -2.3446   30.4445 C   0  0  0  0  0  0  0  0  0  0  0  0
    0.6028   -1.7914   29.2637 C   0  0  0  0  0  0  0  0  0  0  0  0
   -0.2276   -0.9003   28.6153 C   0  0  0  0  0  0  0  0  0  0  0  0
   -1.4070   -0.5215   29.2595 C   0  0  0  0  0  0  0  0  0  0  0  0
   -2.0096    0.5792   28.7180 O   0  0  0  0  0  0  0  0  0  0  0  0
   -1.8487   -1.2291   30.4081 C   0  0  0  0  0  0  0  0  0  0  0  0
   -3.1084   -0.5599   31.6473 Br  0  0  0  0  0  0  0  0  0  0  0  0
   -1.1463   -2.3422   30.8561 C   0  0  0  0  0  0  0  0  0  0  0  0
   -1.6403   -3.5091   31.7535 C   0  0  0  0  0  0  0  0  0  0  0  0
   -0.8477   -4.8725   31.4927 C   0  0  0  0  0  0  0  0  0  0  0  0
   -1.3214   -6.2334   31.7902 N   0  0  0  0  0  0  0  0  0  0  0  0
   -1.1088   -7.1645   33.1465 S   0  0  0  0  0  0  0  0  0  0  0  0
   -1.8249   -6.5989   34.2513 O   0  0  0  0  0  0  0  0  0  0  0  0
   -1.4402   -8.4836   32.6658 O   0  0  0  0  0  0  0  0  0  0  0  0
    0.5238   -7.1964   33.5707 N   0  0  0  0  0  0  0  0  0  0  0  0
    0.6487   -7.3593   35.0740 C   0  0  0  0  0  0  0  0  0  0  0  0
    0.8097   -5.9337   35.6182 C   0  0  0  0  0  0  0  0  0  0  0  0
    1.0253   -5.0520   34.3975 C   0  0  0  0  0  0  0  0  0  0  0  0
    1.4233   -6.0556   33.3521 C   0  0  0  0  0  0  0  0  0  0  0  0
    1.8527   -2.1109   28.8054 O   0  0  0  0  0  0  0  0  0  0  0  0
    4.0991   -3.3730   28.1530 H   0  0  0  0  0  0  0  0  0  0  0  0
    4.3528   -2.5249   29.6701 H   0  0  0  0  0  0  0  0  0  0  0  0
    4.2884   -4.2847   29.6756 H   0  0  0  0  0  0  0  0  0  0  0  0
    2.1126   -4.7054   27.8076 H   0  0  0  0  0  0  0  0  0  0  0  0
    0.6688   -4.4842   28.7749 H   0  0  0  0  0  0  0  0  0  0  0  0
    1.9955   -5.4563   29.4192 H   0  0  0  0  0  0  0  0  0  0  0  0
    0.0870   -0.3996   27.7058 H   0  0  0  0  0  0  0  0  0  0  0  0
   -2.6193    0.9661   29.3668 H   0  0  0  0  0  0  0  0  0  0  0  0
   -1.5659   -3.2310   32.8099 H   0  0  0  0  0  0  0  0  0  0  0  0
   -2.6948   -3.6077   31.5140 H   0  0  0  0  0  0  0  0  0  0  0  0
   -0.6283   -4.9072   30.4209 H   0  0  0  0  0  0  0  0  0  0  0  0
    0.1032   -4.7527   31.9511 H   0  0  0  0  0  0  0  0  0  0  0  0
   -1.1817   -6.8779   31.0092 H   0  0  0  0  0  0  0  0  0  0  0  0
    1.5543   -7.9454   35.2756 H   0  0  0  0  0  0  0  0  0  0  0  0
   -0.1788   -7.9068   35.5356 H   0  0  0  0  0  0  0  0  0  0  0  0
    1.6633   -5.8871   36.3034 H   0  0  0  0  0  0  0  0  0  0  0  0
   -0.0745   -5.6151   36.1805 H   0  0  0  0  0  0  0  0  0  0  0  0
    0.0894   -4.5394   34.1621 H   0  0  0  0  0  0  0  0  0  0  0  0
    1.7971   -4.2975   34.5735 H   0  0  0  0  0  0  0  0  0  0  0  0
    1.5293   -5.7558   32.3151 H   0  0  0  0  0  0  0  0  0  0  0  0
    2.4388   -6.3784   33.6101 H   0  0  0  0  0  0  0  0  0  0  0  0
  1  2  1  0
  2  3  1  0
  2  4  1  0
  4  5  1  0
  5  6  2  0
  5  7  1  0
  7  8  2  0
  8  9  1  0
  9 10  2  0
 10 11  1  0
 10 12  1  0
 12 13  1  0
 12 14  2  0
 14 15  1  0
 15 16  1  0
 16 17  1  0
 17 18  1  0
 18 19  2  0
 18 20  2  0
 18 21  1  0
 21 22  1  0
 22 23  1  0
 23 24  1  0
 24 25  1  0
  8 26  1  0
 26  2  1  0
 14  7  1  0
 25 21  1  0
  1 27  1  0
  1 28  1  0
  1 29  1  0
  3 30  1  0
  3 31  1  0
  3 32  1  0
  9 33  1  0
 11 34  1  0
 15 35  1  0
 15 36  1  0
 16 37  1  0
 16 38  1  0
 17 39  1  0
 22 40  1  0
 22 41  1  0
 23 42  1  0
 23 43  1  0
 24 44  1  0
 24 45  1  0
 25 46  1  0
 25 47  1  0
M  END
>  <Energy>  (885) 
-68.863011469725578

>  <compound_id>  (885) 
1028

>  <target_id>  (885) 
1

>  <reference_id>  (885) 
159

>  <inspiration_ids>  (885) 
[189, 159]

>  <energy_score>  (885) 
13.089909057874763

>  <distance_score>  (885) 
2.498632213406336

>  <path>  (885) 
/opt/xchem-fragalysis-2/maxwin/BulkDock/SCRATCH/505736/C1028-P159/C1028-P159.minimised.mol

>  <scratch_subdir>  (885) 
/opt/xchem-fragalysis-2/maxwin/BulkDock/SCRATCH/505736/C1028-P159

>  <fragmenstein_runtime>  (885) 
7.285799503326416

>  <fragmenstein_outcome>  (885) 
too moved

>  <fragmenstein_mode>  (885) 
expansion

>  <fragmenstein_error>  (885) 


$$$$
C2933-P189
     RDKit          3D

 39 41  0  0  0  0  0  0  0  0999 V2000
   -1.5498   -8.4494   31.6210 C   0  0  0  0  0  0  0  0  0  0  0  0
   -0.6925   -7.4850   32.3203 C   0  0  0  0  0  0  0  0  0  0  0  0
   -0.7683   -7.3703   33.6527 C   0  0  0  0  0  0  0  0  0  0  0  0
   -0.0305   -6.3945   34.2606 N   0  0  0  0  0  0  0  0  0  0  0  0
    0.0978   -6.0996   35.5627 N   0  0  0  0  0  0  0  0  0  0  0  0
    0.9295   -5.0579   35.5180 C   0  0  0  0  0  0  0  0  0  0  0  0
    1.3909   -4.7094   34.2742 N   0  0  0  0  0  0  0  0  0  0  0  0
    0.7519   -5.5572   33.5046 C   0  0  0  0  0  0  0  0  0  0  0  0
    0.7735   -5.7336   32.0740 C   0  0  0  0  0  0  0  0  0  0  0  0
    1.5626   -4.8094   31.1842 C   0  0  0  0  0  0  0  0  0  0  0  0
    0.6123   -3.8189   30.5210 C   0  0  0  0  0  0  0  0  0  0  0  0
    0.1970   -2.8275   31.5036 N   0  0  0  0  0  0  0  0  0  0  0  0
   -1.3776   -2.3522   31.6782 S   0  0  0  0  0  0  0  0  0  0  0  0
   -2.2274   -3.5130   31.5524 O   0  0  0  0  0  0  0  0  0  0  0  0
   -1.3975   -1.5070   32.8477 O   0  0  0  0  0  0  0  0  0  0  0  0
   -1.5792   -1.3720   30.3676 N   0  0  0  0  0  0  0  0  0  0  0  0
   -1.8213   -1.8830   29.0089 C   0  0  0  0  0  0  0  0  0  0  0  0
   -1.4254   -0.7298   28.0915 C   0  0  0  0  0  0  0  0  0  0  0  0
   -1.4676    0.4999   28.9794 C   0  0  0  0  0  0  0  0  0  0  0  0
   -0.9745   -0.0385   30.3115 C   0  0  0  0  0  0  0  0  0  0  0  0
    0.0945   -6.6944   31.5076 N   0  0  0  0  0  0  0  0  0  0  0  0
   -0.9644   -9.0905   30.9574 H   0  0  0  0  0  0  0  0  0  0  0  0
   -2.2702   -7.8614   31.0577 H   0  0  0  0  0  0  0  0  0  0  0  0
   -2.0948   -9.0689   32.3224 H   0  0  0  0  0  0  0  0  0  0  0  0
   -1.3906   -7.9774   34.2951 H   0  0  0  0  0  0  0  0  0  0  0  0
    1.2248   -4.5391   36.4223 H   0  0  0  0  0  0  0  0  0  0  0  0
    2.0524   -5.4154   30.4131 H   0  0  0  0  0  0  0  0  0  0  0  0
    2.3446   -4.2989   31.7562 H   0  0  0  0  0  0  0  0  0  0  0  0
   -0.2442   -4.3456   30.0900 H   0  0  0  0  0  0  0  0  0  0  0  0
    1.1319   -3.2998   29.7086 H   0  0  0  0  0  0  0  0  0  0  0  0
    0.8745   -2.1608   31.8664 H   0  0  0  0  0  0  0  0  0  0  0  0
   -2.8791   -2.1231   28.8940 H   0  0  0  0  0  0  0  0  0  0  0  0
   -1.2313   -2.7703   28.7765 H   0  0  0  0  0  0  0  0  0  0  0  0
   -0.3998   -0.8807   27.7378 H   0  0  0  0  0  0  0  0  0  0  0  0
   -2.0833   -0.6416   27.2230 H   0  0  0  0  0  0  0  0  0  0  0  0
   -2.4987    0.8571   29.0721 H   0  0  0  0  0  0  0  0  0  0  0  0
   -0.8513    1.3201   28.6014 H   0  0  0  0  0  0  0  0  0  0  0  0
   -1.3080    0.5974   31.1354 H   0  0  0  0  0  0  0  0  0  0  0  0
    0.1179   -0.1147   30.3203 H   0  0  0  0  0  0  0  0  0  0  0  0
  1  2  1  0
  2  3  2  0
  3  4  1  0
  4  5  1  0
  5  6  2  0
  6  7  1  0
  7  8  2  0
  8  9  1  0
  9 10  1  0
 10 11  1  0
 11 12  1  0
 12 13  1  0
 13 14  2  0
 13 15  2  0
 13 16  1  0
 16 17  1  0
 17 18  1  0
 18 19  1  0
 19 20  1  0
  9 21  2  0
 21  2  1  0
  8  4  1  0
 20 16  1  0
  1 22  1  0
  1 23  1  0
  1 24  1  0
  3 25  1  0
  6 26  1  0
 10 27  1  0
 10 28  1  0
 11 29  1  0
 11 30  1  0
 12 31  1  0
 17 32  1  0
 17 33  1  0
 18 34  1  0
 18 35  1  0
 19 36  1  0
 19 37  1  0
 20 38  1  0
 20 39  1  0
M  END
>  <Energy>  (886) 
-164.8373035771323

>  <compound_id>  (886) 
2933

>  <target_id>  (886) 
1

>  <reference_id>  (886) 
189

>  <inspiration_ids>  (886) 
[189, 162]

>  <energy_score>  (886) 
-201.52422449332641

>  <distance_score>  (886) 
0.9970622056001432

>  <path>  (886) 
/opt/xchem-fragalysis-2/maxwin/BulkDock/SCRATCH/505736/C2933-P189/C2933-P189.minimised.mol

>  <scratch_subdir>  (886) 
/opt/xchem-fragalysis-2/maxwin/BulkDock/SCRATCH/505736/C2933-P189

>  <fragmenstein_runtime>  (886) 
2.1424338817596436

>  <fragmenstein_outcome>  (886) 
acceptable

>  <fragmenstein_mode>  (886) 
expansion

>  <fragmenstein_error>  (886) 


$$$$
C2933-P162
     RDKit          3D

 39 41  0  0  0  0  0  0  0  0999 V2000
   -1.6389   -8.5793   31.7251 C   0  0  0  0  0  0  0  0  0  0  0  0
   -0.8088   -7.5442   32.3622 C   0  0  0  0  0  0  0  0  0  0  0  0
   -0.8311   -7.4130   33.6964 C   0  0  0  0  0  0  0  0  0  0  0  0
   -0.0836   -6.4193   34.2643 N   0  0  0  0  0  0  0  0  0  0  0  0
    0.0965   -6.1022   35.5557 N   0  0  0  0  0  0  0  0  0  0  0  0
    0.9212   -5.0593   35.4627 C   0  0  0  0  0  0  0  0  0  0  0  0
    1.3447   -4.7373   34.1993 N   0  0  0  0  0  0  0  0  0  0  0  0
    0.6744   -5.5954   33.4681 C   0  0  0  0  0  0  0  0  0  0  0  0
    0.6549   -5.7987   32.0414 C   0  0  0  0  0  0  0  0  0  0  0  0
    1.4603   -4.9137   31.1235 C   0  0  0  0  0  0  0  0  0  0  0  0
    0.5528   -3.8761   30.4786 C   0  0  0  0  0  0  0  0  0  0  0  0
    0.2318   -2.8423   31.4525 N   0  0  0  0  0  0  0  0  0  0  0  0
   -1.3112   -2.2924   31.6812 S   0  0  0  0  0  0  0  0  0  0  0  0
   -2.2076   -3.4210   31.6093 O   0  0  0  0  0  0  0  0  0  0  0  0
   -1.2512   -1.4289   32.8360 O   0  0  0  0  0  0  0  0  0  0  0  0
   -1.5232   -1.3219   30.3601 N   0  0  0  0  0  0  0  0  0  0  0  0
   -1.8044   -1.8516   29.0145 C   0  0  0  0  0  0  0  0  0  0  0  0
   -1.2999   -0.7748   28.0607 C   0  0  0  0  0  0  0  0  0  0  0  0
   -1.2767    0.4884   28.8987 C   0  0  0  0  0  0  0  0  0  0  0  0
   -0.8408   -0.0276   30.2601 C   0  0  0  0  0  0  0  0  0  0  0  0
   -0.0557   -6.7575   31.5095 N   0  0  0  0  0  0  0  0  0  0  0  0
   -2.0189   -9.2781   32.4607 H   0  0  0  0  0  0  0  0  0  0  0  0
   -1.0665   -9.1328   30.9802 H   0  0  0  0  0  0  0  0  0  0  0  0
   -2.4886   -8.0939   31.2583 H   0  0  0  0  0  0  0  0  0  0  0  0
   -1.4060   -8.0351   34.3716 H   0  0  0  0  0  0  0  0  0  0  0  0
    1.2424   -4.5218   36.3466 H   0  0  0  0  0  0  0  0  0  0  0  0
    1.8947   -5.5477   30.3416 H   0  0  0  0  0  0  0  0  0  0  0  0
    2.2864   -4.4452   31.6691 H   0  0  0  0  0  0  0  0  0  0  0  0
   -0.3465   -4.3584   30.0859 H   0  0  0  0  0  0  0  0  0  0  0  0
    1.0744   -3.4039   29.6393 H   0  0  0  0  0  0  0  0  0  0  0  0
    0.9573   -2.2188   31.7971 H   0  0  0  0  0  0  0  0  0  0  0  0
   -2.8794   -1.9883   28.8995 H   0  0  0  0  0  0  0  0  0  0  0  0
   -1.3021   -2.7972   28.8147 H   0  0  0  0  0  0  0  0  0  0  0  0
   -0.2797   -1.0159   27.7414 H   0  0  0  0  0  0  0  0  0  0  0  0
   -1.9281   -0.6767   27.1714 H   0  0  0  0  0  0  0  0  0  0  0  0
   -2.2837    0.9152   28.9556 H   0  0  0  0  0  0  0  0  0  0  0  0
   -0.6014    1.2509   28.5013 H   0  0  0  0  0  0  0  0  0  0  0  0
   -1.1493    0.6567   31.0544 H   0  0  0  0  0  0  0  0  0  0  0  0
    0.2452   -0.1646   30.2910 H   0  0  0  0  0  0  0  0  0  0  0  0
  1  2  1  0
  2  3  2  0
  3  4  1  0
  4  5  1  0
  5  6  2  0
  6  7  1  0
  7  8  2  0
  8  9  1  0
  9 10  1  0
 10 11  1  0
 11 12  1  0
 12 13  1  0
 13 14  2  0
 13 15  2  0
 13 16  1  0
 16 17  1  0
 17 18  1  0
 18 19  1  0
 19 20  1  0
  9 21  2  0
 21  2  1  0
  8  4  1  0
 20 16  1  0
  1 22  1  0
  1 23  1  0
  1 24  1  0
  3 25  1  0
  6 26  1  0
 10 27  1  0
 10 28  1  0
 11 29  1  0
 11 30  1  0
 12 31  1  0
 17 32  1  0
 17 33  1  0
 18 34  1  0
 18 35  1  0
 19 36  1  0
 19 37  1  0
 20 38  1  0
 20 39  1  0
M  END
>  <Energy>  (887) 
-165.62703948826078

>  <compound_id>  (887) 
2933

>  <target_id>  (887) 
1

>  <reference_id>  (887) 
162

>  <inspiration_ids>  (887) 
[189, 162]

>  <energy_score>  (887) 
-202.31396040445418

>  <distance_score>  (887) 
0.9674576334744099

>  <path>  (887) 
/opt/xchem-fragalysis-2/maxwin/BulkDock/SCRATCH/505736/C2933-P162/C2933-P162.minimised.mol

>  <scratch_subdir>  (887) 
/opt/xchem-fragalysis-2/maxwin/BulkDock/SCRATCH/505736/C2933-P162

>  <fragmenstein_runtime>  (887) 
2.216170072555542

>  <fragmenstein_outcome>  (887) 
acceptable

>  <fragmenstein_mode>  (887) 
expansion

>  <fragmenstein_error>  (887) 


$$$$
C2934-P189
     RDKit          3D

 70 73  0  0  0  0  0  0  0  0999 V2000
    0.0762   -6.4965   35.1869 C   0  0  0  0  0  0  0  0  0  0  0  0
   -0.0781   -6.7685   33.7211 C   0  0  0  0  0  0  0  0  0  0  0  0
   -1.0395   -7.6435   33.2715 C   0  0  0  0  0  0  0  0  0  0  0  0
   -1.0955   -7.8236   31.9119 C   0  0  0  0  0  0  0  0  0  0  0  0
   -2.0014   -8.6668   31.3481 O   0  0  0  0  0  0  0  0  0  0  0  0
   -0.3133   -7.1971   31.0277 N   0  0  0  0  0  0  0  0  0  0  0  0
    0.5642   -6.3325   31.5521 C   0  0  0  0  0  0  0  0  0  0  0  0
    1.2830   -5.3936   30.6256 C   0  0  0  0  0  0  0  0  0  0  0  0
    0.4077   -4.2099   30.1837 C   0  0  0  0  0  0  0  0  0  0  0  0
   -0.5711   -3.8001   31.1714 N   0  0  0  0  0  0  0  0  0  0  0  0
   -1.1484   -2.2742   31.4014 S   0  0  0  0  0  0  0  0  0  0  0  0
   -2.3795   -2.4995   32.1127 O   0  0  0  0  0  0  0  0  0  0  0  0
    0.1023   -1.5750   31.8969 N   0  0  0  0  0  0  0  0  0  0  0  0
    0.0062   -0.6857   33.0459 C   0  0  0  0  0  0  0  0  0  0  0  0
    1.4065   -0.2893   33.4853 C   0  0  0  0  0  0  0  0  0  0  0  0
    2.1961    0.7448   32.6498 C   0  0  0  0  0  0  0  0  0  0  0  0
    3.4211    0.9065   33.4205 O   0  0  0  0  0  0  0  0  0  0  0  0
    2.6258    0.3048   31.2421 C   0  0  0  0  0  0  0  0  0  0  0  0
    1.6842    0.7019   30.1109 C   0  0  0  0  0  0  0  0  0  0  0  0
    1.3891    2.1225   30.1849 N   0  0  0  0  0  0  0  0  0  0  0  0
    0.7319    2.6265   28.9784 C   0  0  0  0  0  0  0  0  0  0  0  0
    1.1037    4.0670   28.7550 C   0  0  0  0  0  0  0  0  0  0  0  0
    2.4297    4.6095   28.8860 C   0  0  0  0  0  0  0  0  0  0  0  0
    2.4909    5.9534   28.5953 C   0  0  0  0  0  0  0  0  0  0  0  0
    0.9672    6.5782   28.1457 S   0  0  0  0  0  0  0  0  0  0  0  0
    0.2226    5.0509   28.3439 C   0  0  0  0  0  0  0  0  0  0  0  0
    0.6830    2.4337   31.4199 C   0  0  0  0  0  0  0  0  0  0  0  0
    1.5525    2.1334   32.6335 C   0  0  0  0  0  0  0  0  0  0  0  0
   -1.5830   -1.5072   29.9990 N   0  0  0  0  0  0  0  0  0  0  0  0
   -2.1016   -0.1489   30.0454 C   0  0  0  0  0  0  0  0  0  0  0  0
   -2.3560    0.2214   28.6082 C   0  0  0  0  0  0  0  0  0  0  0  0
   -1.2398   -0.4633   27.8812 C   0  0  0  0  0  0  0  0  0  0  0  0
   -0.9490   -1.7053   28.7056 C   0  0  0  0  0  0  0  0  0  0  0  0
    0.7364   -6.1117   32.8741 N   0  0  0  0  0  0  0  0  0  0  0  0
   -0.8428   -6.0583   35.5885 H   0  0  0  0  0  0  0  0  0  0  0  0
    0.8975   -5.7961   35.3689 H   0  0  0  0  0  0  0  0  0  0  0  0
    0.2953   -7.4257   35.7226 H   0  0  0  0  0  0  0  0  0  0  0  0
   -1.6967   -8.1570   33.9562 H   0  0  0  0  0  0  0  0  0  0  0  0
   -2.6048   -9.0158   32.0302 H   0  0  0  0  0  0  0  0  0  0  0  0
    2.1717   -5.0111   31.1436 H   0  0  0  0  0  0  0  0  0  0  0  0
    1.6403   -5.9396   29.7456 H   0  0  0  0  0  0  0  0  0  0  0  0
    1.0889   -3.3927   29.9255 H   0  0  0  0  0  0  0  0  0  0  0  0
   -0.1294   -4.4846   29.2710 H   0  0  0  0  0  0  0  0  0  0  0  0
   -0.2255   -4.0304   32.0984 H   0  0  0  0  0  0  0  0  0  0  0  0
   -0.4712   -1.2197   33.8774 H   0  0  0  0  0  0  0  0  0  0  0  0
   -0.6133    0.1869   32.8288 H   0  0  0  0  0  0  0  0  0  0  0  0
    1.3251    0.1071   34.5084 H   0  0  0  0  0  0  0  0  0  0  0  0
    2.0221   -1.1942   33.5987 H   0  0  0  0  0  0  0  0  0  0  0  0
    3.9540    0.1015   33.2986 H   0  0  0  0  0  0  0  0  0  0  0  0
    3.6100    0.7452   31.0227 H   0  0  0  0  0  0  0  0  0  0  0  0
    2.7983   -0.7785   31.2190 H   0  0  0  0  0  0  0  0  0  0  0  0
    2.1934    0.4653   29.1680 H   0  0  0  0  0  0  0  0  0  0  0  0
    0.7750    0.1097   30.1261 H   0  0  0  0  0  0  0  0  0  0  0  0
   -0.3537    2.4945   29.0238 H   0  0  0  0  0  0  0  0  0  0  0  0
    1.0815    2.0857   28.0890 H   0  0  0  0  0  0  0  0  0  0  0  0
    3.2923    4.0289   29.1913 H   0  0  0  0  0  0  0  0  0  0  0  0
    3.3579    6.5980   28.6241 H   0  0  0  0  0  0  0  0  0  0  0  0
   -0.8382    4.9537   28.1541 H   0  0  0  0  0  0  0  0  0  0  0  0
   -0.2587    1.8931   31.4987 H   0  0  0  0  0  0  0  0  0  0  0  0
    0.4389    3.5023   31.4566 H   0  0  0  0  0  0  0  0  0  0  0  0
    0.9731    2.3011   33.5503 H   0  0  0  0  0  0  0  0  0  0  0  0
    2.3483    2.8926   32.6660 H   0  0  0  0  0  0  0  0  0  0  0  0
   -2.9959   -0.0598   30.6661 H   0  0  0  0  0  0  0  0  0  0  0  0
   -1.3616    0.5289   30.4631 H   0  0  0  0  0  0  0  0  0  0  0  0
   -2.3782    1.3004   28.4361 H   0  0  0  0  0  0  0  0  0  0  0  0
   -3.2867   -0.2111   28.2380 H   0  0  0  0  0  0  0  0  0  0  0  0
   -1.5709   -0.6817   26.8725 H   0  0  0  0  0  0  0  0  0  0  0  0
   -0.3565    0.1788   27.8272 H   0  0  0  0  0  0  0  0  0  0  0  0
   -1.3600   -2.5972   28.2297 H   0  0  0  0  0  0  0  0  0  0  0  0
    0.1352   -1.8224   28.7781 H   0  0  0  0  0  0  0  0  0  0  0  0
  1  2  1  0
  2  3  2  0
  3  4  1  0
  4  5  1  0
  4  6  2  0
  6  7  1  0
  7  8  1  0
  8  9  1  0
  9 10  1  0
 10 11  1  0
 11 12  2  0
 11 13  2  0
 13 14  1  0
 14 15  1  0
 15 16  1  0
 16 17  1  0
 16 18  1  0
 18 19  1  0
 19 20  1  0
 20 21  1  0
 21 22  1  0
 22 23  1  0
 23 24  2  0
 24 25  1  0
 25 26  1  0
 20 27  1  0
 27 28  1  0
 11 29  1  0
 29 30  1  0
 30 31  1  0
 31 32  1  0
 32 33  1  0
  7 34  2  0
 34  2  1  0
 28 16  1  0
 33 29  1  0
 26 22  2  0
  1 35  1  0
  1 36  1  0
  1 37  1  0
  3 38  1  0
  5 39  1  0
  8 40  1  0
  8 41  1  0
  9 42  1  0
  9 43  1  0
 10 44  1  0
 14 45  1  0
 14 46  1  0
 15 47  1  0
 15 48  1  0
 17 49  1  0
 18 50  1  0
 18 51  1  0
 19 52  1  0
 19 53  1  0
 21 54  1  0
 21 55  1  0
 23 56  1  0
 24 57  1  0
 26 58  1  0
 27 59  1  0
 27 60  1  0
 28 61  1  0
 28 62  1  0
 30 63  1  0
 30 64  1  0
 31 65  1  0
 31 66  1  0
 32 67  1  0
 32 68  1  0
 33 69  1  0
 33 70  1  0
M  END
>  <Energy>  (888) 
-222.74291124775166

>  <compound_id>  (888) 
2934

>  <target_id>  (888) 
1

>  <reference_id>  (888) 
189

>  <inspiration_ids>  (888) 
[189, 163]

>  <energy_score>  (888) 
-83.99423326830785

>  <distance_score>  (888) 
1.8856930545661519

>  <path>  (888) 
/opt/xchem-fragalysis-2/maxwin/BulkDock/SCRATCH/505736/C2934-P189/C2934-P189.minimised.mol

>  <scratch_subdir>  (888) 
/opt/xchem-fragalysis-2/maxwin/BulkDock/SCRATCH/505736/C2934-P189

>  <fragmenstein_runtime>  (888) 
6.954559326171875

>  <fragmenstein_outcome>  (888) 
too moved

>  <fragmenstein_mode>  (888) 
expansion

>  <fragmenstein_error>  (888) 


$$$$
C2934-P163
     RDKit          3D

 70 73  0  0  0  0  0  0  0  0999 V2000
    0.0521   -6.4158   35.2463 C   0  0  0  0  0  0  0  0  0  0  0  0
   -0.0924   -6.7038   33.7825 C   0  0  0  0  0  0  0  0  0  0  0  0
   -1.0760   -7.5557   33.3337 C   0  0  0  0  0  0  0  0  0  0  0  0
   -1.1232   -7.7548   31.9769 C   0  0  0  0  0  0  0  0  0  0  0  0
   -2.0414   -8.5778   31.4059 O   0  0  0  0  0  0  0  0  0  0  0  0
   -0.3104   -7.1651   31.0978 N   0  0  0  0  0  0  0  0  0  0  0  0
    0.5944   -6.3292   31.6202 C   0  0  0  0  0  0  0  0  0  0  0  0
    1.3484   -5.4434   30.6728 C   0  0  0  0  0  0  0  0  0  0  0  0
    0.4903   -4.2320   30.3178 C   0  0  0  0  0  0  0  0  0  0  0  0
    0.2176   -3.3883   31.4722 N   0  0  0  0  0  0  0  0  0  0  0  0
   -1.1012   -2.3629   31.5234 S   0  0  0  0  0  0  0  0  0  0  0  0
   -2.2375   -3.2434   31.4002 O   0  0  0  0  0  0  0  0  0  0  0  0
   -0.7780   -1.4324   32.6809 N   0  0  0  0  0  0  0  0  0  0  0  0
    0.5835   -1.0005   33.0500 C   0  0  0  0  0  0  0  0  0  0  0  0
    1.3941   -0.4692   31.8655 C   0  0  0  0  0  0  0  0  0  0  0  0
    2.3697    0.6676   32.1772 C   0  0  0  0  0  0  0  0  0  0  0  0
    3.2924    0.1894   33.1631 O   0  0  0  0  0  0  0  0  0  0  0  0
    3.1390    1.0361   30.8914 C   0  0  0  0  0  0  0  0  0  0  0  0
    2.6512    2.3195   30.2170 C   0  0  0  0  0  0  0  0  0  0  0  0
    1.2135    2.5132   30.3316 N   0  0  0  0  0  0  0  0  0  0  0  0
    0.7114    3.5945   29.4599 C   0  0  0  0  0  0  0  0  0  0  0  0
    1.4664    4.8956   29.5825 C   0  0  0  0  0  0  0  0  0  0  0  0
    1.1980    5.9289   30.5419 C   0  0  0  0  0  0  0  0  0  0  0  0
    2.0367    7.0137   30.4145 C   0  0  0  0  0  0  0  0  0  0  0  0
    3.1460    6.8159   29.1330 S   0  0  0  0  0  0  0  0  0  0  0  0
    2.4951    5.2857   28.7392 C   0  0  0  0  0  0  0  0  0  0  0  0
    0.7529    2.5861   31.7174 C   0  0  0  0  0  0  0  0  0  0  0  0
    1.6918    1.9201   32.7267 C   0  0  0  0  0  0  0  0  0  0  0  0
   -1.0691   -1.3997   30.1546 N   0  0  0  0  0  0  0  0  0  0  0  0
   -1.6940   -0.0824   30.1802 C   0  0  0  0  0  0  0  0  0  0  0  0
   -1.3368    0.5077   28.8367 C   0  0  0  0  0  0  0  0  0  0  0  0
   -1.2685   -0.6849   27.9109 C   0  0  0  0  0  0  0  0  0  0  0  0
   -1.3090   -1.9085   28.8109 C   0  0  0  0  0  0  0  0  0  0  0  0
    0.7557   -6.0875   32.9371 N   0  0  0  0  0  0  0  0  0  0  0  0
    0.8887   -5.7337   35.4284 H   0  0  0  0  0  0  0  0  0  0  0  0
    0.2414   -7.3428   35.7968 H   0  0  0  0  0  0  0  0  0  0  0  0
   -0.8599   -5.9490   35.6315 H   0  0  0  0  0  0  0  0  0  0  0  0
   -1.7558   -8.0380   34.0188 H   0  0  0  0  0  0  0  0  0  0  0  0
   -2.6422   -8.9326   32.0866 H   0  0  0  0  0  0  0  0  0  0  0  0
    2.2986   -5.1324   31.1227 H   0  0  0  0  0  0  0  0  0  0  0  0
    1.5883   -6.0022   29.7615 H   0  0  0  0  0  0  0  0  0  0  0  0
    1.0329   -3.6420   29.5721 H   0  0  0  0  0  0  0  0  0  0  0  0
   -0.4437   -4.5766   29.8609 H   0  0  0  0  0  0  0  0  0  0  0  0
    0.0749   -3.9671   32.2967 H   0  0  0  0  0  0  0  0  0  0  0  0
    1.1200   -1.8301   33.5261 H   0  0  0  0  0  0  0  0  0  0  0  0
    0.4647   -0.2438   33.8295 H   0  0  0  0  0  0  0  0  0  0  0  0
    1.9645   -1.3152   31.4582 H   0  0  0  0  0  0  0  0  0  0  0  0
    0.7592   -0.1192   31.0582 H   0  0  0  0  0  0  0  0  0  0  0  0
    3.8785   -0.4609   32.7375 H   0  0  0  0  0  0  0  0  0  0  0  0
    4.2086    1.1524   31.1112 H   0  0  0  0  0  0  0  0  0  0  0  0
    3.0843    0.2122   30.1675 H   0  0  0  0  0  0  0  0  0  0  0  0
    3.1968    3.1619   30.6623 H   0  0  0  0  0  0  0  0  0  0  0  0
    2.9516    2.2701   29.1626 H   0  0  0  0  0  0  0  0  0  0  0  0
   -0.3530    3.7681   29.6322 H   0  0  0  0  0  0  0  0  0  0  0  0
    0.7766    3.2483   28.4196 H   0  0  0  0  0  0  0  0  0  0  0  0
    0.4151    5.8818   31.2887 H   0  0  0  0  0  0  0  0  0  0  0  0
    2.0432    7.9168   31.0086 H   0  0  0  0  0  0  0  0  0  0  0  0
    2.9060    4.7325   27.9057 H   0  0  0  0  0  0  0  0  0  0  0  0
   -0.2235    2.1089   31.7894 H   0  0  0  0  0  0  0  0  0  0  0  0
    0.6096    3.6205   32.0465 H   0  0  0  0  0  0  0  0  0  0  0  0
    1.1606    1.7281   33.6648 H   0  0  0  0  0  0  0  0  0  0  0  0
    2.4747    2.6394   33.0100 H   0  0  0  0  0  0  0  0  0  0  0  0
   -2.7689   -0.1603   30.3200 H   0  0  0  0  0  0  0  0  0  0  0  0
   -1.3326    0.5518   30.9869 H   0  0  0  0  0  0  0  0  0  0  0  0
   -0.3481    0.9711   28.8744 H   0  0  0  0  0  0  0  0  0  0  0  0
   -2.0413    1.2714   28.4985 H   0  0  0  0  0  0  0  0  0  0  0  0
   -2.0932   -0.6890   27.1951 H   0  0  0  0  0  0  0  0  0  0  0  0
   -0.3281   -0.6417   27.3562 H   0  0  0  0  0  0  0  0  0  0  0  0
   -2.2807   -2.3957   28.7461 H   0  0  0  0  0  0  0  0  0  0  0  0
   -0.5567   -2.6264   28.4835 H   0  0  0  0  0  0  0  0  0  0  0  0
  1  2  1  0
  2  3  2  0
  3  4  1  0
  4  5  1  0
  4  6  2  0
  6  7  1  0
  7  8  1  0
  8  9  1  0
  9 10  1  0
 10 11  1  0
 11 12  2  0
 11 13  2  0
 13 14  1  0
 14 15  1  0
 15 16  1  0
 16 17  1  0
 16 18  1  0
 18 19  1  0
 19 20  1  0
 20 21  1  0
 21 22  1  0
 22 23  1  0
 23 24  2  0
 24 25  1  0
 25 26  1  0
 20 27  1  0
 27 28  1  0
 11 29  1  0
 29 30  1  0
 30 31  1  0
 31 32  1  0
 32 33  1  0
  7 34  2  0
 34  2  1  0
 28 16  1  0
 33 29  1  0
 26 22  2  0
  1 35  1  0
  1 36  1  0
  1 37  1  0
  3 38  1  0
  5 39  1  0
  8 40  1  0
  8 41  1  0
  9 42  1  0
  9 43  1  0
 10 44  1  0
 14 45  1  0
 14 46  1  0
 15 47  1  0
 15 48  1  0
 17 49  1  0
 18 50  1  0
 18 51  1  0
 19 52  1  0
 19 53  1  0
 21 54  1  0
 21 55  1  0
 23 56  1  0
 24 57  1  0
 26 58  1  0
 27 59  1  0
 27 60  1  0
 28 61  1  0
 28 62  1  0
 30 63  1  0
 30 64  1  0
 31 65  1  0
 31 66  1  0
 32 67  1  0
 32 68  1  0
 33 69  1  0
 33 70  1  0
M  END
>  <Energy>  (889) 
-217.82333868305318

>  <compound_id>  (889) 
2934

>  <target_id>  (889) 
1

>  <reference_id>  (889) 
163

>  <inspiration_ids>  (889) 
[189, 163]

>  <energy_score>  (889) 
-79.07466070360675

>  <distance_score>  (889) 
2.069488309938462

>  <path>  (889) 
/opt/xchem-fragalysis-2/maxwin/BulkDock/SCRATCH/505736/C2934-P163/C2934-P163.minimised.mol

>  <scratch_subdir>  (889) 
/opt/xchem-fragalysis-2/maxwin/BulkDock/SCRATCH/505736/C2934-P163

>  <fragmenstein_runtime>  (889) 
8.360905885696411

>  <fragmenstein_outcome>  (889) 
too moved

>  <fragmenstein_mode>  (889) 
expansion

>  <fragmenstein_error>  (889) 


$$$$
C2935-P189
     RDKit          3D

 66 69  0  0  0  0  0  0  0  0999 V2000
    2.4810   -2.3027   40.5840 C   0  0  0  0  0  0  0  0  0  0  0  0
    1.5065   -3.3337   40.3759 N   0  0  0  0  0  0  0  0  0  0  0  0
    1.4675   -4.6977   40.8259 C   0  0  0  0  0  0  0  0  0  0  0  0
    2.1998   -5.3013   41.5559 O   0  0  0  0  0  0  0  0  0  0  0  0
    0.2286   -5.3980   40.2544 C   0  0  0  0  0  0  0  0  0  0  0  0
    0.3280   -5.6565   38.7695 C   0  0  0  0  0  0  0  0  0  0  0  0
   -0.5223   -5.0070   37.8702 C   0  0  0  0  0  0  0  0  0  0  0  0
   -0.4306   -5.2569   36.4970 C   0  0  0  0  0  0  0  0  0  0  0  0
    0.5040   -6.1702   35.9840 C   0  0  0  0  0  0  0  0  0  0  0  0
    0.5463   -6.5811   34.5116 C   0  0  0  0  0  0  0  0  0  0  0  0
   -0.6810   -7.3755   33.9922 C   0  0  0  0  0  0  0  0  0  0  0  0
   -1.8525   -7.5874   34.9686 C   0  0  0  0  0  0  0  0  0  0  0  0
   -2.7499   -8.6027   34.3997 N   0  0  0  0  0  0  0  0  0  0  0  0
   -4.2811   -9.0418   34.8464 S   0  0  0  0  0  0  0  0  0  0  0  0
   -4.3998  -10.4531   34.7124 O   0  0  0  0  0  0  0  0  0  0  0  0
   -4.6722   -8.4806   36.0844 O   0  0  0  0  0  0  0  0  0  0  0  0
   -5.2907   -8.3732   33.5261 N   0  0  0  0  0  0  0  0  0  0  0  0
   -4.9808   -8.3827   32.0914 C   0  0  0  0  0  0  0  0  0  0  0  0
   -6.5978   -7.3212   31.8345 C   0  0  0  0  0  0  0  0  0  0  0  0
   -7.7274   -7.4438   32.9166 C   0  0  0  0  0  0  0  0  0  0  0  0
   -6.8878   -7.1399   34.0088 C   0  0  0  0  0  0  0  0  0  0  0  0
   -1.1118   -6.8348   32.6392 C   0  0  0  0  0  0  0  0  0  0  0  0
    0.0040   -6.8088   31.6951 N   0  0  0  0  0  0  0  0  0  0  0  0
    1.1734   -6.1284   32.1962 N   0  0  0  0  0  0  0  0  0  0  0  0
    1.4337   -4.9527   31.3461 C   0  0  0  0  0  0  0  0  0  0  0  0
    2.8107   -4.6144   31.4354 O   0  0  0  0  0  0  0  0  0  0  0  0
    0.5941   -3.8630   31.9813 C   0  0  0  0  0  0  0  0  0  0  0  0
    0.5596   -4.2415   33.4699 C   0  0  0  0  0  0  0  0  0  0  0  0
    1.4495   -3.2829   34.2564 C   0  0  0  0  0  0  0  0  0  0  0  0
    1.1011   -5.6040   33.5477 N   0  0  0  0  0  0  0  0  0  0  0  0
    1.3602   -6.8085   36.9016 C   0  0  0  0  0  0  0  0  0  0  0  0
    1.2726   -6.5585   38.2730 C   0  0  0  0  0  0  0  0  0  0  0  0
    3.0393   -2.1629   39.6555 H   0  0  0  0  0  0  0  0  0  0  0  0
    1.9613   -1.3782   40.8442 H   0  0  0  0  0  0  0  0  0  0  0  0
    3.1636   -2.5954   41.3849 H   0  0  0  0  0  0  0  0  0  0  0  0
    0.7695   -3.1891   39.6956 H   0  0  0  0  0  0  0  0  0  0  0  0
   -0.6565   -4.7951   40.4932 H   0  0  0  0  0  0  0  0  0  0  0  0
    0.0918   -6.3536   40.7761 H   0  0  0  0  0  0  0  0  0  0  0  0
   -1.2838   -4.3174   38.2304 H   0  0  0  0  0  0  0  0  0  0  0  0
   -1.1330   -4.7487   35.8403 H   0  0  0  0  0  0  0  0  0  0  0  0
    1.3382   -7.3482   34.5061 H   0  0  0  0  0  0  0  0  0  0  0  0
   -0.3112   -8.3759   33.7729 H   0  0  0  0  0  0  0  0  0  0  0  0
   -1.4676   -7.9893   35.9093 H   0  0  0  0  0  0  0  0  0  0  0  0
   -2.3531   -6.6511   35.1536 H   0  0  0  0  0  0  0  0  0  0  0  0
   -2.2449   -9.4887   34.4271 H   0  0  0  0  0  0  0  0  0  0  0  0
   -3.9307   -8.1666   31.8043 H   0  0  0  0  0  0  0  0  0  0  0  0
   -5.0961   -9.2722   31.5354 H   0  0  0  0  0  0  0  0  0  0  0  0
   -6.8368   -6.8505   30.9104 H   0  0  0  0  0  0  0  0  0  0  0  0
   -6.1741   -6.3544   31.7831 H   0  0  0  0  0  0  0  0  0  0  0  0
   -8.3588   -8.2449   33.2068 H   0  0  0  0  0  0  0  0  0  0  0  0
   -8.6960   -7.0327   32.8102 H   0  0  0  0  0  0  0  0  0  0  0  0
   -7.4390   -7.2315   34.9808 H   0  0  0  0  0  0  0  0  0  0  0  0
   -6.6343   -6.0883   34.0779 H   0  0  0  0  0  0  0  0  0  0  0  0
   -1.8700   -7.4831   32.1960 H   0  0  0  0  0  0  0  0  0  0  0  0
   -1.5577   -5.8426   32.7320 H   0  0  0  0  0  0  0  0  0  0  0  0
    0.2596   -7.7665   31.4422 H   0  0  0  0  0  0  0  0  0  0  0  0
    1.1998   -5.1035   30.2864 H   0  0  0  0  0  0  0  0  0  0  0  0
    3.0382   -4.9268   32.3306 H   0  0  0  0  0  0  0  0  0  0  0  0
    1.0049   -2.8636   31.8032 H   0  0  0  0  0  0  0  0  0  0  0  0
   -0.4259   -3.8982   31.5784 H   0  0  0  0  0  0  0  0  0  0  0  0
   -0.4726   -4.1647   33.8242 H   0  0  0  0  0  0  0  0  0  0  0  0
    1.0675   -2.2587   34.1784 H   0  0  0  0  0  0  0  0  0  0  0  0
    1.4865   -3.5347   35.3195 H   0  0  0  0  0  0  0  0  0  0  0  0
    2.4803   -3.2791   33.8853 H   0  0  0  0  0  0  0  0  0  0  0  0
    2.0986   -7.5330   36.5642 H   0  0  0  0  0  0  0  0  0  0  0  0
    1.9402   -7.0847   38.9552 H   0  0  0  0  0  0  0  0  0  0  0  0
  1  2  1  0
  2  3  1  0
  3  4  2  0
  3  5  1  0
  5  6  1  0
  6  7  2  0
  7  8  1  0
  8  9  2  0
  9 10  1  0
 10 11  1  0
 11 12  1  0
 12 13  1  0
 13 14  1  0
 14 15  2  0
 14 16  2  0
 14 17  1  0
 17 18  1  0
 18 19  1  0
 19 20  1  0
 20 21  1  0
 11 22  1  0
 22 23  1  0
 23 24  1  0
 24 25  1  0
 25 26  1  0
 25 27  1  0
 27 28  1  0
 28 29  1  0
 28 30  1  0
  9 31  1  0
 31 32  2  0
 32  6  1  0
 30 10  1  0
 21 17  1  0
 30 24  1  0
  1 33  1  0
  1 34  1  0
  1 35  1  0
  2 36  1  0
  5 37  1  0
  5 38  1  0
  7 39  1  0
  8 40  1  0
 10 41  1  0
 11 42  1  0
 12 43  1  0
 12 44  1  0
 13 45  1  0
 18 46  1  0
 18 47  1  0
 19 48  1  0
 19 49  1  0
 20 50  1  0
 20 51  1  0
 21 52  1  0
 21 53  1  0
 22 54  1  0
 22 55  1  0
 23 56  1  0
 25 57  1  0
 26 58  1  0
 27 59  1  0
 27 60  1  0
 28 61  1  0
 29 62  1  0
 29 63  1  0
 29 64  1  0
 31 65  1  0
 32 66  1  0
M  END
>  <Energy>  (890) 
96.557690952876456

>  <compound_id>  (890) 
2935

>  <target_id>  (890) 
1

>  <reference_id>  (890) 
189

>  <inspiration_ids>  (890) 
[189, 164]

>  <energy_score>  (890) 
149.3193317757949

>  <distance_score>  (890) 
2.984256974861858

>  <path>  (890) 
/opt/xchem-fragalysis-2/maxwin/BulkDock/SCRATCH/505736/C2935-P189/C2935-P189.minimised.mol

>  <scratch_subdir>  (890) 
/opt/xchem-fragalysis-2/maxwin/BulkDock/SCRATCH/505736/C2935-P189

>  <fragmenstein_runtime>  (890) 
17.218283891677856

>  <fragmenstein_outcome>  (890) 
too moved

>  <fragmenstein_mode>  (890) 
expansion

>  <fragmenstein_error>  (890) 


$$$$
C2935-P164
     RDKit          3D

 66 69  0  0  0  0  0  0  0  0999 V2000
    2.0584   -2.2346   40.8112 C   0  0  0  0  0  0  0  0  0  0  0  0
    1.1349   -3.2869   40.5050 N   0  0  0  0  0  0  0  0  0  0  0  0
    1.1922   -4.6992   40.7716 C   0  0  0  0  0  0  0  0  0  0  0  0
    1.9892   -5.3468   41.3872 O   0  0  0  0  0  0  0  0  0  0  0  0
   -0.0269   -5.3940   40.1536 C   0  0  0  0  0  0  0  0  0  0  0  0
    0.0996   -5.5662   38.6589 C   0  0  0  0  0  0  0  0  0  0  0  0
   -0.6353   -4.7621   37.7803 C   0  0  0  0  0  0  0  0  0  0  0  0
   -0.5223   -4.9328   36.3986 C   0  0  0  0  0  0  0  0  0  0  0  0
    0.3231   -5.9158   35.8630 C   0  0  0  0  0  0  0  0  0  0  0  0
    0.3449   -6.2397   34.3667 C   0  0  0  0  0  0  0  0  0  0  0  0
   -0.6420   -7.4192   34.0947 C   0  0  0  0  0  0  0  0  0  0  0  0
   -1.9072   -7.5146   34.9715 C   0  0  0  0  0  0  0  0  0  0  0  0
   -2.7831   -8.5858   34.4668 N   0  0  0  0  0  0  0  0  0  0  0  0
   -4.3374   -8.9616   34.8839 S   0  0  0  0  0  0  0  0  0  0  0  0
   -4.5360  -10.3566   34.6808 O   0  0  0  0  0  0  0  0  0  0  0  0
   -4.6741   -8.4720   36.1672 O   0  0  0  0  0  0  0  0  0  0  0  0
   -5.3246   -8.1887   33.6279 N   0  0  0  0  0  0  0  0  0  0  0  0
   -4.9915   -8.2063   32.1658 C   0  0  0  0  0  0  0  0  0  0  0  0
   -6.5591   -7.1100   31.9356 C   0  0  0  0  0  0  0  0  0  0  0  0
   -7.6842   -7.1723   33.0309 C   0  0  0  0  0  0  0  0  0  0  0  0
   -6.8530   -6.9132   34.1474 C   0  0  0  0  0  0  0  0  0  0  0  0
   -0.9700   -7.5502   32.6050 C   0  0  0  0  0  0  0  0  0  0  0  0
    0.0026   -6.8609   31.7737 N   0  0  0  0  0  0  0  0  0  0  0  0
   -0.1458   -5.4619   32.0635 N   0  0  0  0  0  0  0  0  0  0  0  0
    0.6894   -4.6473   31.1564 C   0  0  0  0  0  0  0  0  0  0  0  0
    1.0974   -5.3678   30.0052 O   0  0  0  0  0  0  0  0  0  0  0  0
    1.8849   -4.2811   31.9865 C   0  0  0  0  0  0  0  0  0  0  0  0
    1.2866   -4.1063   33.3718 C   0  0  0  0  0  0  0  0  0  0  0  0
    2.4090   -4.1059   34.4020 C   0  0  0  0  0  0  0  0  0  0  0  0
    0.1789   -5.0879   33.4507 N   0  0  0  0  0  0  0  0  0  0  0  0
    1.0695   -6.7099   36.7537 C   0  0  0  0  0  0  0  0  0  0  0  0
    0.9605   -6.5357   38.1340 C   0  0  0  0  0  0  0  0  0  0  0  0
    1.5491   -1.4959   41.4341 H   0  0  0  0  0  0  0  0  0  0  0  0
    2.9228   -2.6416   41.3409 H   0  0  0  0  0  0  0  0  0  0  0  0
    2.3761   -1.7688   39.8757 H   0  0  0  0  0  0  0  0  0  0  0  0
    0.2712   -3.0772   40.0187 H   0  0  0  0  0  0  0  0  0  0  0  0
   -0.9356   -4.8355   40.4112 H   0  0  0  0  0  0  0  0  0  0  0  0
   -0.1451   -6.3782   40.6247 H   0  0  0  0  0  0  0  0  0  0  0  0
   -1.3262   -4.0134   38.1619 H   0  0  0  0  0  0  0  0  0  0  0  0
   -1.1324   -4.3163   35.7388 H   0  0  0  0  0  0  0  0  0  0  0  0
    1.3459   -6.6476   34.1550 H   0  0  0  0  0  0  0  0  0  0  0  0
   -0.0628   -8.2916   34.3802 H   0  0  0  0  0  0  0  0  0  0  0  0
   -1.6060   -7.7899   35.9846 H   0  0  0  0  0  0  0  0  0  0  0  0
   -2.3809   -6.5568   35.0088 H   0  0  0  0  0  0  0  0  0  0  0  0
   -2.2934   -9.4620   34.6561 H   0  0  0  0  0  0  0  0  0  0  0  0
   -3.9327   -8.0244   31.8882 H   0  0  0  0  0  0  0  0  0  0  0  0
   -5.1247   -9.0984   31.6202 H   0  0  0  0  0  0  0  0  0  0  0  0
   -6.8138   -6.6298   31.0245 H   0  0  0  0  0  0  0  0  0  0  0  0
   -6.1003   -6.1681   31.8332 H   0  0  0  0  0  0  0  0  0  0  0  0
   -8.3654   -7.9376   33.3050 H   0  0  0  0  0  0  0  0  0  0  0  0
   -8.6328   -6.7319   32.8899 H   0  0  0  0  0  0  0  0  0  0  0  0
   -7.4062   -7.0185   35.1124 H   0  0  0  0  0  0  0  0  0  0  0  0
   -6.5965   -5.8601   34.2592 H   0  0  0  0  0  0  0  0  0  0  0  0
   -1.0026   -8.6044   32.3129 H   0  0  0  0  0  0  0  0  0  0  0  0
   -1.9580   -7.1527   32.3797 H   0  0  0  0  0  0  0  0  0  0  0  0
    0.9505   -7.1836   31.9689 H   0  0  0  0  0  0  0  0  0  0  0  0
    0.1291   -3.7597   30.8415 H   0  0  0  0  0  0  0  0  0  0  0  0
    0.4046   -6.0568   29.9787 H   0  0  0  0  0  0  0  0  0  0  0  0
    2.6373   -5.0809   31.9653 H   0  0  0  0  0  0  0  0  0  0  0  0
    2.3649   -3.3669   31.6211 H   0  0  0  0  0  0  0  0  0  0  0  0
    0.8137   -3.1151   33.4127 H   0  0  0  0  0  0  0  0  0  0  0  0
    2.0393   -3.8543   35.3995 H   0  0  0  0  0  0  0  0  0  0  0  0
    2.9352   -5.0645   34.4495 H   0  0  0  0  0  0  0  0  0  0  0  0
    3.1555   -3.3445   34.1464 H   0  0  0  0  0  0  0  0  0  0  0  0
    1.7256   -7.4938   36.3837 H   0  0  0  0  0  0  0  0  0  0  0  0
    1.5386   -7.1735   38.8025 H   0  0  0  0  0  0  0  0  0  0  0  0
  1  2  1  0
  2  3  1  0
  3  4  2  0
  3  5  1  0
  5  6  1  0
  6  7  2  0
  7  8  1  0
  8  9  2  0
  9 10  1  0
 10 11  1  0
 11 12  1  0
 12 13  1  0
 13 14  1  0
 14 15  2  0
 14 16  2  0
 14 17  1  0
 17 18  1  0
 18 19  1  0
 19 20  1  0
 20 21  1  0
 11 22  1  0
 22 23  1  0
 23 24  1  0
 24 25  1  0
 25 26  1  0
 25 27  1  0
 27 28  1  0
 28 29  1  0
 28 30  1  0
  9 31  1  0
 31 32  2  0
 32  6  1  0
 30 10  1  0
 21 17  1  0
 30 24  1  0
  1 33  1  0
  1 34  1  0
  1 35  1  0
  2 36  1  0
  5 37  1  0
  5 38  1  0
  7 39  1  0
  8 40  1  0
 10 41  1  0
 11 42  1  0
 12 43  1  0
 12 44  1  0
 13 45  1  0
 18 46  1  0
 18 47  1  0
 19 48  1  0
 19 49  1  0
 20 50  1  0
 20 51  1  0
 21 52  1  0
 21 53  1  0
 22 54  1  0
 22 55  1  0
 23 56  1  0
 25 57  1  0
 26 58  1  0
 27 59  1  0
 27 60  1  0
 28 61  1  0
 29 62  1  0
 29 63  1  0
 29 64  1  0
 31 65  1  0
 32 66  1  0
M  END
>  <Energy>  (891) 
87.112571146670206

>  <compound_id>  (891) 
2935

>  <target_id>  (891) 
1

>  <reference_id>  (891) 
164

>  <inspiration_ids>  (891) 
[189, 164]

>  <energy_score>  (891) 
139.87421196959687

>  <distance_score>  (891) 
3.022954826056472

>  <path>  (891) 
/opt/xchem-fragalysis-2/maxwin/BulkDock/SCRATCH/505736/C2935-P164/C2935-P164.minimised.mol

>  <scratch_subdir>  (891) 
/opt/xchem-fragalysis-2/maxwin/BulkDock/SCRATCH/505736/C2935-P164

>  <fragmenstein_runtime>  (891) 
15.619256734848022

>  <fragmenstein_outcome>  (891) 
too moved

>  <fragmenstein_mode>  (891) 
expansion

>  <fragmenstein_error>  (891) 


$$$$
C2938-P189
     RDKit          3D

 41 43  0  0  0  0  0  0  0  0999 V2000
    0.6205   -5.3240   34.1583 C   0  0  0  0  0  0  0  0  0  0  0  0
   -0.5407   -5.4989   33.1738 C   0  0  0  0  0  0  0  0  0  0  0  0
   -0.9054   -6.9998   33.1005 C   0  0  0  0  0  0  0  0  0  0  0  0
   -1.1116   -7.4052   31.6592 C   0  0  0  0  0  0  0  0  0  0  0  0
   -1.3923   -8.7766   31.5024 O   0  0  0  0  0  0  0  0  0  0  0  0
    0.1085   -7.0810   30.9746 N   0  0  0  0  0  0  0  0  0  0  0  0
    0.2640   -5.6344   30.8203 C   0  0  0  0  0  0  0  0  0  0  0  0
    1.7449   -5.3030   30.7822 C   0  0  0  0  0  0  0  0  0  0  0  0
    1.9318   -3.8062   30.6719 C   0  0  0  0  0  0  0  0  0  0  0  0
    1.1691   -3.0727   31.6682 N   0  0  0  0  0  0  0  0  0  0  0  0
   -0.2304   -3.4242   31.7825 C   0  0  0  0  0  0  0  0  0  0  0  0
   -1.1014   -2.6830   30.8599 N   0  0  0  0  0  0  0  0  0  0  0  0
   -0.9169   -2.7705   29.4132 C   0  0  0  0  0  0  0  0  0  0  0  0
   -1.8043   -1.6603   28.8757 C   0  0  0  0  0  0  0  0  0  0  0  0
   -1.5829   -0.5332   29.8652 C   0  0  0  0  0  0  0  0  0  0  0  0
   -1.1313   -1.2320   31.1483 C   0  0  0  0  0  0  0  0  0  0  0  0
   -0.4410   -4.8749   31.8342 N   0  0  0  0  0  0  0  0  0  0  0  0
    0.3800   -5.7906   35.1206 H   0  0  0  0  0  0  0  0  0  0  0  0
    0.8200   -4.2679   34.3612 H   0  0  0  0  0  0  0  0  0  0  0  0
    1.5409   -5.7845   33.7890 H   0  0  0  0  0  0  0  0  0  0  0  0
   -1.3883   -5.0060   33.6524 H   0  0  0  0  0  0  0  0  0  0  0  0
   -0.1227   -7.6280   33.5474 H   0  0  0  0  0  0  0  0  0  0  0  0
   -1.8047   -7.2062   33.6893 H   0  0  0  0  0  0  0  0  0  0  0  0
   -1.9509   -6.8912   31.2129 H   0  0  0  0  0  0  0  0  0  0  0  0
   -2.0864   -9.0036   32.1485 H   0  0  0  0  0  0  0  0  0  0  0  0
    0.0842   -7.5317   30.0667 H   0  0  0  0  0  0  0  0  0  0  0  0
   -0.1675   -5.3857   29.8479 H   0  0  0  0  0  0  0  0  0  0  0  0
    2.2256   -5.7853   29.9225 H   0  0  0  0  0  0  0  0  0  0  0  0
    2.2548   -5.6698   31.6799 H   0  0  0  0  0  0  0  0  0  0  0  0
    1.7140   -3.4775   29.6554 H   0  0  0  0  0  0  0  0  0  0  0  0
    2.9939   -3.5719   30.8140 H   0  0  0  0  0  0  0  0  0  0  0  0
    1.5880   -3.2444   32.5777 H   0  0  0  0  0  0  0  0  0  0  0  0
   -0.5491   -3.0500   32.7646 H   0  0  0  0  0  0  0  0  0  0  0  0
   -1.2145   -3.7353   29.0034 H   0  0  0  0  0  0  0  0  0  0  0  0
    0.1007   -2.5421   29.0950 H   0  0  0  0  0  0  0  0  0  0  0  0
   -1.5442   -1.3652   27.8561 H   0  0  0  0  0  0  0  0  0  0  0  0
   -2.8474   -1.9855   28.8791 H   0  0  0  0  0  0  0  0  0  0  0  0
   -2.4878    0.0634   30.0115 H   0  0  0  0  0  0  0  0  0  0  0  0
   -0.7917    0.1345   29.5047 H   0  0  0  0  0  0  0  0  0  0  0  0
   -1.8317   -1.0287   31.9658 H   0  0  0  0  0  0  0  0  0  0  0  0
   -0.1521   -0.8332   31.4383 H   0  0  0  0  0  0  0  0  0  0  0  0
  1  2  1  0
  2  3  1  0
  3  4  1  0
  4  5  1  0
  4  6  1  0
  6  7  1  0
  7  8  1  0
  8  9  1  0
  9 10  1  0
 10 11  1  0
 11 12  1  0
 12 13  1  0
 13 14  1  0
 14 15  1  0
 15 16  1  0
 11 17  1  0
 17  2  1  0
 17  7  1  0
 16 12  1  0
  1 18  1  0
  1 19  1  0
  1 20  1  0
  2 21  1  0
  3 22  1  0
  3 23  1  0
  4 24  1  0
  5 25  1  0
  6 26  1  0
  7 27  1  0
  8 28  1  0
  8 29  1  0
  9 30  1  0
  9 31  1  0
 10 32  1  0
 11 33  1  0
 13 34  1  0
 13 35  1  0
 14 36  1  0
 14 37  1  0
 15 38  1  0
 15 39  1  0
 16 40  1  0
 16 41  1  0
M  END
>  <Energy>  (892) 
-211.97477995270938

>  <compound_id>  (892) 
2938

>  <target_id>  (892) 
1

>  <reference_id>  (892) 
189

>  <inspiration_ids>  (892) 
[189, 180]

>  <energy_score>  (892) 
-33.27375614514594

>  <distance_score>  (892) 
1.4479079820936855

>  <path>  (892) 
/opt/xchem-fragalysis-2/maxwin/BulkDock/SCRATCH/505736/C2938-P189/C2938-P189.minimised.mol

>  <scratch_subdir>  (892) 
/opt/xchem-fragalysis-2/maxwin/BulkDock/SCRATCH/505736/C2938-P189

>  <fragmenstein_runtime>  (892) 
2.082313299179077

>  <fragmenstein_outcome>  (892) 
too moved

>  <fragmenstein_mode>  (892) 
expansion

>  <fragmenstein_error>  (892) 


$$$$
C2938-P180
     RDKit          3D

 41 43  0  0  0  0  0  0  0  0999 V2000
    0.5861   -5.3097   34.2422 C   0  0  0  0  0  0  0  0  0  0  0  0
   -0.5381   -5.4786   33.2125 C   0  0  0  0  0  0  0  0  0  0  0  0
   -0.8785   -6.9839   33.1199 C   0  0  0  0  0  0  0  0  0  0  0  0
   -1.1089   -7.3667   31.6793 C   0  0  0  0  0  0  0  0  0  0  0  0
   -1.4049   -8.7322   31.5065 O   0  0  0  0  0  0  0  0  0  0  0  0
    0.1038   -7.0466   30.9849 N   0  0  0  0  0  0  0  0  0  0  0  0
    0.2869   -5.6006   30.8534 C   0  0  0  0  0  0  0  0  0  0  0  0
    1.7822   -5.3290   30.7773 C   0  0  0  0  0  0  0  0  0  0  0  0
    2.0432   -3.8389   30.7402 C   0  0  0  0  0  0  0  0  0  0  0  0
    1.3597   -3.1644   31.8265 N   0  0  0  0  0  0  0  0  0  0  0  0
   -0.0682   -3.3910   31.8872 C   0  0  0  0  0  0  0  0  0  0  0  0
   -0.8223   -2.5154   30.9820 N   0  0  0  0  0  0  0  0  0  0  0  0
   -0.9280   -2.7693   29.5487 C   0  0  0  0  0  0  0  0  0  0  0  0
   -1.0019   -1.4121   28.8437 C   0  0  0  0  0  0  0  0  0  0  0  0
   -1.1377   -0.3958   29.9584 C   0  0  0  0  0  0  0  0  0  0  0  0
   -0.4739   -1.0887   31.1325 C   0  0  0  0  0  0  0  0  0  0  0  0
   -0.3875   -4.8271   31.8858 N   0  0  0  0  0  0  0  0  0  0  0  0
    0.3395   -5.8343   35.1726 H   0  0  0  0  0  0  0  0  0  0  0  0
    0.7373   -4.2589   34.5060 H   0  0  0  0  0  0  0  0  0  0  0  0
    1.5336   -5.7130   33.8724 H   0  0  0  0  0  0  0  0  0  0  0  0
   -1.4165   -5.0023   33.6623 H   0  0  0  0  0  0  0  0  0  0  0  0
   -0.0741   -7.6063   33.5357 H   0  0  0  0  0  0  0  0  0  0  0  0
   -1.7585   -7.2164   33.7283 H   0  0  0  0  0  0  0  0  0  0  0  0
   -1.9487   -6.8387   31.2559 H   0  0  0  0  0  0  0  0  0  0  0  0
   -2.0932   -8.9593   32.1599 H   0  0  0  0  0  0  0  0  0  0  0  0
    0.0653   -7.4809   30.0691 H   0  0  0  0  0  0  0  0  0  0  0  0
   -0.1612   -5.3309   29.8934 H   0  0  0  0  0  0  0  0  0  0  0  0
    2.2123   -5.7923   29.8808 H   0  0  0  0  0  0  0  0  0  0  0  0
    2.3010   -5.7666   31.6402 H   0  0  0  0  0  0  0  0  0  0  0  0
    1.7923   -3.4065   29.7696 H   0  0  0  0  0  0  0  0  0  0  0  0
    3.1207   -3.6674   30.8512 H   0  0  0  0  0  0  0  0  0  0  0  0
    1.7519   -3.4805   32.7075 H   0  0  0  0  0  0  0  0  0  0  0  0
   -0.3831   -3.0189   32.8708 H   0  0  0  0  0  0  0  0  0  0  0  0
   -1.8416   -3.3285   29.3601 H   0  0  0  0  0  0  0  0  0  0  0  0
   -0.1087   -3.3363   29.1101 H   0  0  0  0  0  0  0  0  0  0  0  0
   -0.0651   -1.2322   28.3020 H   0  0  0  0  0  0  0  0  0  0  0  0
   -1.8197   -1.3525   28.1205 H   0  0  0  0  0  0  0  0  0  0  0  0
   -2.1856   -0.1957   30.1913 H   0  0  0  0  0  0  0  0  0  0  0  0
   -0.6618    0.5575   29.7097 H   0  0  0  0  0  0  0  0  0  0  0  0
   -0.8327   -0.6849   32.0849 H   0  0  0  0  0  0  0  0  0  0  0  0
    0.6064   -0.9133   31.0657 H   0  0  0  0  0  0  0  0  0  0  0  0
  1  2  1  0
  2  3  1  0
  3  4  1  0
  4  5  1  0
  4  6  1  0
  6  7  1  0
  7  8  1  0
  8  9  1  0
  9 10  1  0
 10 11  1  0
 11 12  1  0
 12 13  1  0
 13 14  1  0
 14 15  1  0
 15 16  1  0
 11 17  1  0
 17  2  1  0
 17  7  1  0
 16 12  1  0
  1 18  1  0
  1 19  1  0
  1 20  1  0
  2 21  1  0
  3 22  1  0
  3 23  1  0
  4 24  1  0
  5 25  1  0
  6 26  1  0
  7 27  1  0
  8 28  1  0
  8 29  1  0
  9 30  1  0
  9 31  1  0
 10 32  1  0
 11 33  1  0
 13 34  1  0
 13 35  1  0
 14 36  1  0
 14 37  1  0
 15 38  1  0
 15 39  1  0
 16 40  1  0
 16 41  1  0
M  END
>  <Energy>  (893) 
-210.44677311732693

>  <compound_id>  (893) 
2938

>  <target_id>  (893) 
1

>  <reference_id>  (893) 
180

>  <inspiration_ids>  (893) 
[189, 180]

>  <energy_score>  (893) 
-31.745749309763383

>  <distance_score>  (893) 
1.5109039015433348

>  <path>  (893) 
/opt/xchem-fragalysis-2/maxwin/BulkDock/SCRATCH/505736/C2938-P180/C2938-P180.minimised.mol

>  <scratch_subdir>  (893) 
/opt/xchem-fragalysis-2/maxwin/BulkDock/SCRATCH/505736/C2938-P180

>  <fragmenstein_runtime>  (893) 
1.4273617267608643

>  <fragmenstein_outcome>  (893) 
too moved

>  <fragmenstein_mode>  (893) 
expansion

>  <fragmenstein_error>  (893) 


$$$$
C2947-P189
     RDKit          3D

 61 65  0  0  0  0  0  0  0  0999 V2000
    2.9186   -6.2925   28.3260 O   0  0  0  0  0  0  0  0  0  0  0  0
    2.9378   -4.9670   28.9069 S   0  0  0  0  0  0  0  0  0  0  0  0
    3.8013   -4.6466   30.0169 O   0  0  0  0  0  0  0  0  0  0  0  0
    1.3615   -4.6132   29.3186 N   0  0  0  0  0  0  0  0  0  0  0  0
    0.9459   -4.9193   30.6830 C   0  0  0  0  0  0  0  0  0  0  0  0
    1.3812   -6.2904   31.1410 C   0  0  0  0  0  0  0  0  0  0  0  0
    0.8792   -6.6872   32.5134 C   0  0  0  0  0  0  0  0  0  0  0  0
   -0.6263   -6.5609   32.6143 C   0  0  0  0  0  0  0  0  0  0  0  0
   -1.2671   -7.6024   31.8909 O   0  0  0  0  0  0  0  0  0  0  0  0
   -0.9974   -6.5166   34.0911 C   0  0  0  0  0  0  0  0  0  0  0  0
   -0.6733   -5.0722   34.4985 C   0  0  0  0  0  0  0  0  0  0  0  0
   -0.5747   -4.2815   33.1742 C   0  0  0  0  0  0  0  0  0  0  0  0
   -1.3392   -2.9305   33.1132 C   0  0  0  0  0  0  0  0  0  0  0  0
   -0.6059   -1.7814   33.6684 N   0  0  0  0  0  0  0  0  0  0  0  0
   -0.5668   -0.7864   32.5751 N   0  0  0  0  0  0  0  0  0  0  0  0
   -0.6887   -1.5810   31.3486 C   0  0  0  0  0  0  0  0  0  0  0  0
   -1.0942   -0.8076   30.1128 C   0  0  0  0  0  0  0  0  0  0  0  0
   -0.7355    0.5382   29.9449 C   0  0  0  0  0  0  0  0  0  0  0  0
   -1.0936    1.2375   28.7896 C   0  0  0  0  0  0  0  0  0  0  0  0
   -1.8040    0.6018   27.7771 C   0  0  0  0  0  0  0  0  0  0  0  0
   -2.1331   -0.7413   27.9047 C   0  0  0  0  0  0  0  0  0  0  0  0
   -1.7688   -1.4432   29.0536 C   0  0  0  0  0  0  0  0  0  0  0  0
   -1.6787   -2.5576   31.7400 N   0  0  0  0  0  0  0  0  0  0  0  0
   -1.0248   -5.2421   32.1311 N   0  0  0  0  0  0  0  0  0  0  0  0
   -0.5100   -4.9256   30.7691 N   0  0  0  0  0  0  0  0  0  0  0  0
    3.1988   -3.8324   27.7027 N   0  0  0  0  0  0  0  0  0  0  0  0
    3.2278   -2.4069   28.1749 C   0  0  0  0  0  0  0  0  0  0  0  0
    4.6015   -1.8752   27.7930 C   0  0  0  0  0  0  0  0  0  0  0  0
    4.9597   -2.6808   26.5630 C   0  0  0  0  0  0  0  0  0  0  0  0
    4.4537   -4.0669   26.9224 C   0  0  0  0  0  0  0  0  0  0  0  0
    0.7080   -4.9293   28.6049 H   0  0  0  0  0  0  0  0  0  0  0  0
    1.3861   -4.1392   31.3100 H   0  0  0  0  0  0  0  0  0  0  0  0
    2.4570   -6.2534   31.2295 H   0  0  0  0  0  0  0  0  0  0  0  0
    1.0658   -7.0384   30.4034 H   0  0  0  0  0  0  0  0  0  0  0  0
    1.4218   -6.0895   33.2561 H   0  0  0  0  0  0  0  0  0  0  0  0
    1.1119   -7.7116   32.7507 H   0  0  0  0  0  0  0  0  0  0  0  0
   -1.5081   -8.2945   32.5333 H   0  0  0  0  0  0  0  0  0  0  0  0
   -2.0465   -6.7585   34.2506 H   0  0  0  0  0  0  0  0  0  0  0  0
   -0.4310   -7.2371   34.6931 H   0  0  0  0  0  0  0  0  0  0  0  0
    0.2959   -5.0467   35.0128 H   0  0  0  0  0  0  0  0  0  0  0  0
   -1.3989   -4.6705   35.2081 H   0  0  0  0  0  0  0  0  0  0  0  0
    0.4891   -4.0474   33.0621 H   0  0  0  0  0  0  0  0  0  0  0  0
   -2.2794   -3.0075   33.6594 H   0  0  0  0  0  0  0  0  0  0  0  0
    0.3452   -2.0568   33.9155 H   0  0  0  0  0  0  0  0  0  0  0  0
   -1.4396   -0.2528   32.6130 H   0  0  0  0  0  0  0  0  0  0  0  0
    0.2804   -2.0494   31.1344 H   0  0  0  0  0  0  0  0  0  0  0  0
   -0.1696    1.0587   30.7143 H   0  0  0  0  0  0  0  0  0  0  0  0
   -0.8241    2.2851   28.6785 H   0  0  0  0  0  0  0  0  0  0  0  0
   -2.0971    1.1487   26.8856 H   0  0  0  0  0  0  0  0  0  0  0  0
   -2.6678   -1.2505   27.1053 H   0  0  0  0  0  0  0  0  0  0  0  0
   -2.0348   -2.4958   29.1101 H   0  0  0  0  0  0  0  0  0  0  0  0
   -1.5339   -3.3948   31.1658 H   0  0  0  0  0  0  0  0  0  0  0  0
   -0.8175   -5.6756   30.1440 H   0  0  0  0  0  0  0  0  0  0  0  0
    3.0543   -2.2978   29.2496 H   0  0  0  0  0  0  0  0  0  0  0  0
    2.4356   -1.8527   27.6668 H   0  0  0  0  0  0  0  0  0  0  0  0
    5.3191   -2.0793   28.5969 H   0  0  0  0  0  0  0  0  0  0  0  0
    4.5948   -0.7974   27.6083 H   0  0  0  0  0  0  0  0  0  0  0  0
    6.0321   -2.6723   26.3487 H   0  0  0  0  0  0  0  0  0  0  0  0
    4.4354   -2.2930   25.6837 H   0  0  0  0  0  0  0  0  0  0  0  0
    5.2037   -4.5874   27.5293 H   0  0  0  0  0  0  0  0  0  0  0  0
    4.2392   -4.6659   26.0346 H   0  0  0  0  0  0  0  0  0  0  0  0
  1  2  2  0
  2  3  2  0
  2  4  1  0
  4  5  1  0
  5  6  1  0
  6  7  1  0
  7  8  1  0
  8  9  1  0
  8 10  1  0
 10 11  1  0
 11 12  1  0
 12 13  1  0
 13 14  1  0
 14 15  1  0
 15 16  1  0
 16 17  1  0
 17 18  2  0
 18 19  1  0
 19 20  2  0
 20 21  1  0
 21 22  2  0
 16 23  1  0
 12 24  1  0
 24 25  1  0
  2 26  1  0
 26 27  1  0
 27 28  1  0
 28 29  1  0
 29 30  1  0
 25  5  1  0
 30 26  1  0
 24  8  1  0
 23 13  1  0
 22 17  1  0
  4 31  1  0
  5 32  1  0
  6 33  1  0
  6 34  1  0
  7 35  1  0
  7 36  1  0
  9 37  1  0
 10 38  1  0
 10 39  1  0
 11 40  1  0
 11 41  1  0
 12 42  1  0
 13 43  1  0
 14 44  1  0
 15 45  1  0
 16 46  1  0
 18 47  1  0
 19 48  1  0
 20 49  1  0
 21 50  1  0
 22 51  1  0
 23 52  1  0
 25 53  1  0
 27 54  1  0
 27 55  1  0
 28 56  1  0
 28 57  1  0
 29 58  1  0
 29 59  1  0
 30 60  1  0
 30 61  1  0
M  END
>  <Energy>  (894) 
-136.79296922390697

>  <compound_id>  (894) 
2947

>  <target_id>  (894) 
1

>  <reference_id>  (894) 
189

>  <inspiration_ids>  (894) 
[189, 197]

>  <energy_score>  (894) 
-101.6190388809151

>  <distance_score>  (894) 
1.9330487699427288

>  <path>  (894) 
/opt/xchem-fragalysis-2/maxwin/BulkDock/SCRATCH/505736/C2947-P189/C2947-P189.minimised.mol

>  <scratch_subdir>  (894) 
/opt/xchem-fragalysis-2/maxwin/BulkDock/SCRATCH/505736/C2947-P189

>  <fragmenstein_runtime>  (894) 
8.90876030921936

>  <fragmenstein_outcome>  (894) 
too moved

>  <fragmenstein_mode>  (894) 
expansion

>  <fragmenstein_error>  (894) 


$$$$
C2947-P197
     RDKit          3D

 61 65  0  0  0  0  0  0  0  0999 V2000
    3.0653   -6.6412   28.4330 O   0  0  0  0  0  0  0  0  0  0  0  0
    3.1519   -5.3615   29.1059 S   0  0  0  0  0  0  0  0  0  0  0  0
    4.3896   -4.8891   29.6712 O   0  0  0  0  0  0  0  0  0  0  0  0
    2.0133   -5.3657   30.3385 N   0  0  0  0  0  0  0  0  0  0  0  0
    0.6531   -5.7116   29.9596 C   0  0  0  0  0  0  0  0  0  0  0  0
    0.3522   -7.1936   30.0745 C   0  0  0  0  0  0  0  0  0  0  0  0
    0.2733   -7.5911   31.5312 C   0  0  0  0  0  0  0  0  0  0  0  0
   -0.8781   -6.9139   32.1930 C   0  0  0  0  0  0  0  0  0  0  0  0
   -2.0210   -7.5333   31.6210 O   0  0  0  0  0  0  0  0  0  0  0  0
   -0.8830   -7.0602   33.7105 C   0  0  0  0  0  0  0  0  0  0  0  0
   -0.0138   -5.9234   34.2270 C   0  0  0  0  0  0  0  0  0  0  0  0
    0.0416   -4.9012   33.0859 C   0  0  0  0  0  0  0  0  0  0  0  0
   -0.4697   -3.4737   33.4857 C   0  0  0  0  0  0  0  0  0  0  0  0
    0.5994   -2.5562   33.9161 N   0  0  0  0  0  0  0  0  0  0  0  0
    0.5401   -1.4126   32.9381 N   0  0  0  0  0  0  0  0  0  0  0  0
   -0.0398   -2.0398   31.7538 C   0  0  0  0  0  0  0  0  0  0  0  0
   -0.5303   -1.1629   30.6234 C   0  0  0  0  0  0  0  0  0  0  0  0
   -0.2001    0.1914   30.5152 C   0  0  0  0  0  0  0  0  0  0  0  0
   -0.6157    0.9308   29.4078 C   0  0  0  0  0  0  0  0  0  0  0  0
   -1.3564    0.3238   28.3989 C   0  0  0  0  0  0  0  0  0  0  0  0
   -1.6504   -1.0255   28.4534 C   0  0  0  0  0  0  0  0  0  0  0  0
   -1.2545   -1.7541   29.5641 C   0  0  0  0  0  0  0  0  0  0  0  0
   -1.1171   -2.7871   32.3619 N   0  0  0  0  0  0  0  0  0  0  0  0
   -0.8008   -5.4685   31.9983 N   0  0  0  0  0  0  0  0  0  0  0  0
   -0.3374   -4.9525   30.7066 N   0  0  0  0  0  0  0  0  0  0  0  0
    2.5503   -4.1823   28.0934 N   0  0  0  0  0  0  0  0  0  0  0  0
    2.5025   -2.7838   28.5789 C   0  0  0  0  0  0  0  0  0  0  0  0
    2.4142   -1.9602   27.3056 C   0  0  0  0  0  0  0  0  0  0  0  0
    3.3665   -2.6986   26.3888 C   0  0  0  0  0  0  0  0  0  0  0  0
    3.1033   -4.1647   26.7107 C   0  0  0  0  0  0  0  0  0  0  0  0
    2.0671   -4.5030   30.8728 H   0  0  0  0  0  0  0  0  0  0  0  0
    0.5168   -5.3705   28.9403 H   0  0  0  0  0  0  0  0  0  0  0  0
    1.0725   -7.8152   29.5431 H   0  0  0  0  0  0  0  0  0  0  0  0
   -0.6175   -7.4136   29.6105 H   0  0  0  0  0  0  0  0  0  0  0  0
    1.1968   -7.3494   32.0564 H   0  0  0  0  0  0  0  0  0  0  0  0
    0.0445   -8.6502   31.5533 H   0  0  0  0  0  0  0  0  0  0  0  0
   -2.2273   -8.3246   32.1518 H   0  0  0  0  0  0  0  0  0  0  0  0
   -1.8921   -6.9594   34.1169 H   0  0  0  0  0  0  0  0  0  0  0  0
   -0.5151   -8.0311   34.0489 H   0  0  0  0  0  0  0  0  0  0  0  0
    0.9948   -6.2994   34.4368 H   0  0  0  0  0  0  0  0  0  0  0  0
   -0.4162   -5.5179   35.1607 H   0  0  0  0  0  0  0  0  0  0  0  0
    1.0899   -4.8301   32.7707 H   0  0  0  0  0  0  0  0  0  0  0  0
   -1.2146   -3.5620   34.2834 H   0  0  0  0  0  0  0  0  0  0  0  0
    0.3784   -2.2174   34.8554 H   0  0  0  0  0  0  0  0  0  0  0  0
   -0.1851   -0.7599   33.2468 H   0  0  0  0  0  0  0  0  0  0  0  0
    0.7341   -2.6831   31.3190 H   0  0  0  0  0  0  0  0  0  0  0  0
    0.3983    0.6804   31.2800 H   0  0  0  0  0  0  0  0  0  0  0  0
   -0.3597    1.9837   29.3271 H   0  0  0  0  0  0  0  0  0  0  0  0
   -1.7271    0.8982   27.5634 H   0  0  0  0  0  0  0  0  0  0  0  0
   -2.2087   -1.5031   27.6515 H   0  0  0  0  0  0  0  0  0  0  0  0
   -1.5242   -2.8019   29.5837 H   0  0  0  0  0  0  0  0  0  0  0  0
   -1.3641   -3.5378   31.7169 H   0  0  0  0  0  0  0  0  0  0  0  0
   -1.1071   -4.7918   30.0636 H   0  0  0  0  0  0  0  0  0  0  0  0
    3.4088   -2.5256   29.1362 H   0  0  0  0  0  0  0  0  0  0  0  0
    1.6288   -2.6245   29.2086 H   0  0  0  0  0  0  0  0  0  0  0  0
    2.6945   -0.9148   27.4602 H   0  0  0  0  0  0  0  0  0  0  0  0
    1.3960   -1.9909   26.8996 H   0  0  0  0  0  0  0  0  0  0  0  0
    4.4031   -2.4416   26.6383 H   0  0  0  0  0  0  0  0  0  0  0  0
    3.2050   -2.4672   25.3322 H   0  0  0  0  0  0  0  0  0  0  0  0
    4.0193   -4.7537   26.6064 H   0  0  0  0  0  0  0  0  0  0  0  0
    2.3421   -4.5769   26.0425 H   0  0  0  0  0  0  0  0  0  0  0  0
  1  2  2  0
  2  3  2  0
  2  4  1  0
  4  5  1  0
  5  6  1  0
  6  7  1  0
  7  8  1  0
  8  9  1  0
  8 10  1  0
 10 11  1  0
 11 12  1  0
 12 13  1  0
 13 14  1  0
 14 15  1  0
 15 16  1  0
 16 17  1  0
 17 18  2  0
 18 19  1  0
 19 20  2  0
 20 21  1  0
 21 22  2  0
 16 23  1  0
 12 24  1  0
 24 25  1  0
  2 26  1  0
 26 27  1  0
 27 28  1  0
 28 29  1  0
 29 30  1  0
 25  5  1  0
 30 26  1  0
 24  8  1  0
 23 13  1  0
 22 17  1  0
  4 31  1  0
  5 32  1  0
  6 33  1  0
  6 34  1  0
  7 35  1  0
  7 36  1  0
  9 37  1  0
 10 38  1  0
 10 39  1  0
 11 40  1  0
 11 41  1  0
 12 42  1  0
 13 43  1  0
 14 44  1  0
 15 45  1  0
 16 46  1  0
 18 47  1  0
 19 48  1  0
 20 49  1  0
 21 50  1  0
 22 51  1  0
 23 52  1  0
 25 53  1  0
 27 54  1  0
 27 55  1  0
 28 56  1  0
 28 57  1  0
 29 58  1  0
 29 59  1  0
 30 60  1  0
 30 61  1  0
M  END
>  <Energy>  (895) 
-133.77001825819278

>  <compound_id>  (895) 
2947

>  <target_id>  (895) 
1

>  <reference_id>  (895) 
197

>  <inspiration_ids>  (895) 
[189, 197]

>  <energy_score>  (895) 
-98.59608791520017

>  <distance_score>  (895) 
1.660440189510331

>  <path>  (895) 
/opt/xchem-fragalysis-2/maxwin/BulkDock/SCRATCH/505736/C2947-P197/C2947-P197.minimised.mol

>  <scratch_subdir>  (895) 
/opt/xchem-fragalysis-2/maxwin/BulkDock/SCRATCH/505736/C2947-P197

>  <fragmenstein_runtime>  (895) 
8.904946327209473

>  <fragmenstein_outcome>  (895) 
too moved

>  <fragmenstein_mode>  (895) 
expansion

>  <fragmenstein_error>  (895) 


$$$$
C2949-P189
     RDKit          3D

 76 80  0  0  0  0  0  0  0  0999 V2000
   -0.1263   -6.3308   35.2454 C   0  0  0  0  0  0  0  0  0  0  0  0
   -0.2200   -6.5896   33.7700 C   0  0  0  0  0  0  0  0  0  0  0  0
   -1.0790   -7.5559   33.2977 C   0  0  0  0  0  0  0  0  0  0  0  0
   -1.1025   -7.7200   31.9366 C   0  0  0  0  0  0  0  0  0  0  0  0
   -1.9288   -8.6295   31.3499 O   0  0  0  0  0  0  0  0  0  0  0  0
   -0.3611   -7.0139   31.0758 N   0  0  0  0  0  0  0  0  0  0  0  0
    0.4391   -6.0857   31.6200 C   0  0  0  0  0  0  0  0  0  0  0  0
    1.1906   -5.1715   30.6905 C   0  0  0  0  0  0  0  0  0  0  0  0
    0.3170   -3.9861   30.2840 C   0  0  0  0  0  0  0  0  0  0  0  0
    0.0738   -3.0849   31.4407 N   0  0  0  0  0  0  0  0  0  0  0  0
   -1.2965   -2.1186   31.3531 S   0  0  0  0  0  0  0  0  0  0  0  0
   -2.3930   -2.9763   30.9778 O   0  0  0  0  0  0  0  0  0  0  0  0
   -1.3308   -1.3630   32.5825 O   0  0  0  0  0  0  0  0  0  0  0  0
   -0.8444   -1.1170   30.1140 N   0  0  0  0  0  0  0  0  0  0  0  0
   -0.1700    0.1488   30.4431 C   0  0  0  0  0  0  0  0  0  0  0  0
   -0.2467    0.9659   29.1664 C   0  0  0  0  0  0  0  0  0  0  0  0
   -1.5843    0.5417   28.5666 C   0  0  0  0  0  0  0  0  0  0  0  0
   -1.6806    1.0680   27.1952 N   0  0  0  0  0  0  0  0  0  0  0  0
   -2.3040    2.4064   27.1842 C   0  0  0  0  0  0  0  0  0  0  0  0
   -2.0279    3.2617   25.9333 C   0  0  0  0  0  0  0  0  0  0  0  0
   -0.6395    3.9232   25.7774 C   0  0  0  0  0  0  0  0  0  0  0  0
    0.4326    2.9351   25.7740 N   0  0  0  0  0  0  0  0  0  0  0  0
   -0.3445    4.9954   26.7770 C   0  0  0  0  0  0  0  0  0  0  0  0
   -0.1339    4.5845   28.0711 O   0  0  0  0  0  0  0  0  0  0  0  0
    0.2534    5.7093   28.7239 C   0  0  0  0  0  0  0  0  0  0  0  0
    0.3239    6.7851   27.9829 N   0  0  0  0  0  0  0  0  0  0  0  0
   -0.0647    6.3567   26.7232 C   0  0  0  0  0  0  0  0  0  0  0  0
   -0.0125    7.2627   25.5621 C   0  0  0  0  0  0  0  0  0  0  0  0
    0.8675    8.0265   25.4789 O   0  0  0  0  0  0  0  0  0  0  0  0
   -1.2097    7.0044   24.6145 N   0  0  0  0  0  0  0  0  0  0  0  0
   -1.5040    7.5371   23.3892 C   0  0  0  0  0  0  0  0  0  0  0  0
   -0.8494    8.6076   22.9096 C   0  0  0  0  0  0  0  0  0  0  0  0
   -1.1365    9.1630   21.6905 N   0  0  0  0  0  0  0  0  0  0  0  0
   -2.0967    8.6914   20.8289 C   0  0  0  0  0  0  0  0  0  0  0  0
   -2.3266    9.2337   19.7543 O   0  0  0  0  0  0  0  0  0  0  0  0
   -2.8268    7.4768   21.2706 C   0  0  0  0  0  0  0  0  0  0  0  0
   -3.7546    6.8882   20.3994 C   0  0  0  0  0  0  0  0  0  0  0  0
   -4.3906    5.7079   20.7670 C   0  0  0  0  0  0  0  0  0  0  0  0
   -4.1064    5.1312   22.0012 C   0  0  0  0  0  0  0  0  0  0  0  0
   -3.2090    5.7347   22.8824 C   0  0  0  0  0  0  0  0  0  0  0  0
   -2.5415    6.9154   22.5315 C   0  0  0  0  0  0  0  0  0  0  0  0
   -1.5433   -0.9976   28.8108 C   0  0  0  0  0  0  0  0  0  0  0  0
    0.5443   -5.8442   32.9436 N   0  0  0  0  0  0  0  0  0  0  0  0
   -1.0968   -6.0096   35.6362 H   0  0  0  0  0  0  0  0  0  0  0  0
    0.1899   -7.2387   35.7689 H   0  0  0  0  0  0  0  0  0  0  0  0
    0.6046   -5.5433   35.4550 H   0  0  0  0  0  0  0  0  0  0  0  0
   -1.6907   -8.1417   33.9672 H   0  0  0  0  0  0  0  0  0  0  0  0
   -2.5360   -9.0045   32.0155 H   0  0  0  0  0  0  0  0  0  0  0  0
    1.4868   -5.7353   29.7988 H   0  0  0  0  0  0  0  0  0  0  0  0
    2.1100   -4.8270   31.1783 H   0  0  0  0  0  0  0  0  0  0  0  0
    0.8299   -3.4084   29.5071 H   0  0  0  0  0  0  0  0  0  0  0  0
   -0.6242   -4.3525   29.8641 H   0  0  0  0  0  0  0  0  0  0  0  0
    0.0297   -3.5901   32.3328 H   0  0  0  0  0  0  0  0  0  0  0  0
    0.8662   -0.0206   30.7477 H   0  0  0  0  0  0  0  0  0  0  0  0
   -0.7036    0.6784   31.2395 H   0  0  0  0  0  0  0  0  0  0  0  0
    0.5837    0.6930   28.5015 H   0  0  0  0  0  0  0  0  0  0  0  0
   -0.1770    2.0387   29.3674 H   0  0  0  0  0  0  0  0  0  0  0  0
   -2.4092    0.9287   29.1805 H   0  0  0  0  0  0  0  0  0  0  0  0
   -2.2282    0.4242   26.6182 H   0  0  0  0  0  0  0  0  0  0  0  0
   -3.3876    2.2553   27.2421 H   0  0  0  0  0  0  0  0  0  0  0  0
   -2.0191    2.9790   28.0712 H   0  0  0  0  0  0  0  0  0  0  0  0
   -2.2296    2.6507   25.0435 H   0  0  0  0  0  0  0  0  0  0  0  0
   -2.7816    4.0603   25.9212 H   0  0  0  0  0  0  0  0  0  0  0  0
   -0.6217    4.3820   24.7827 H   0  0  0  0  0  0  0  0  0  0  0  0
    1.3332    3.3957   25.9014 H   0  0  0  0  0  0  0  0  0  0  0  0
    0.3056    2.3306   26.5918 H   0  0  0  0  0  0  0  0  0  0  0  0
    0.4648    5.6132   29.7791 H   0  0  0  0  0  0  0  0  0  0  0  0
   -1.8302    6.3247   25.0323 H   0  0  0  0  0  0  0  0  0  0  0  0
   -0.0677    9.1157   23.4665 H   0  0  0  0  0  0  0  0  0  0  0  0
   -0.6308    9.9845   21.3799 H   0  0  0  0  0  0  0  0  0  0  0  0
   -3.9531    7.3352   19.4279 H   0  0  0  0  0  0  0  0  0  0  0  0
   -5.0891    5.2189   20.0920 H   0  0  0  0  0  0  0  0  0  0  0  0
   -4.5662    4.1871   22.2805 H   0  0  0  0  0  0  0  0  0  0  0  0
   -3.0379    5.2334   23.8270 H   0  0  0  0  0  0  0  0  0  0  0  0
   -0.9447   -1.5048   28.0481 H   0  0  0  0  0  0  0  0  0  0  0  0
   -2.5457   -1.4266   28.8178 H   0  0  0  0  0  0  0  0  0  0  0  0
  1  2  1  0
  2  3  2  0
  3  4  1  0
  4  5  1  0
  4  6  2  0
  6  7  1  0
  7  8  1  0
  8  9  1  0
  9 10  1  0
 10 11  1  0
 11 12  2  0
 11 13  2  0
 11 14  1  0
 14 15  1  0
 15 16  1  0
 16 17  1  0
 17 18  1  0
 18 19  1  0
 19 20  1  0
 20 21  1  0
 21 22  1  0
 21 23  1  0
 23 24  1  0
 24 25  1  0
 25 26  2  0
 26 27  1  0
 27 28  1  0
 28 29  2  0
 28 30  1  0
 30 31  1  0
 31 32  2  0
 32 33  1  0
 33 34  1  0
 34 35  2  0
 34 36  1  0
 36 37  2  0
 37 38  1  0
 38 39  2  0
 39 40  1  0
 40 41  2  0
 17 42  1  0
  7 43  2  0
 43  2  1  0
 42 14  1  0
 27 23  2  0
 41 31  1  0
 41 36  1  0
  1 44  1  0
  1 45  1  0
  1 46  1  0
  3 47  1  0
  5 48  1  0
  8 49  1  0
  8 50  1  0
  9 51  1  0
  9 52  1  0
 10 53  1  0
 15 54  1  0
 15 55  1  0
 16 56  1  0
 16 57  1  0
 17 58  1  0
 18 59  1  0
 19 60  1  0
 19 61  1  0
 20 62  1  0
 20 63  1  0
 21 64  1  0
 22 65  1  0
 22 66  1  0
 25 67  1  0
 30 68  1  0
 32 69  1  0
 33 70  1  0
 37 71  1  0
 38 72  1  0
 39 73  1  0
 40 74  1  0
 42 75  1  0
 42 76  1  0
M  END
>  <Energy>  (896) 
-121.03391594279003

>  <compound_id>  (896) 
2949

>  <target_id>  (896) 
1

>  <reference_id>  (896) 
189

>  <inspiration_ids>  (896) 
[189, 202]

>  <energy_score>  (896) 
-121.22374305366736

>  <distance_score>  (896) 
0.6861193220674393

>  <path>  (896) 
/opt/xchem-fragalysis-2/maxwin/BulkDock/SCRATCH/505736/C2949-P189/C2949-P189.minimised.mol

>  <scratch_subdir>  (896) 
/opt/xchem-fragalysis-2/maxwin/BulkDock/SCRATCH/505736/C2949-P189

>  <fragmenstein_runtime>  (896) 
15.098226070404053

>  <fragmenstein_outcome>  (896) 
acceptable

>  <fragmenstein_mode>  (896) 
expansion

>  <fragmenstein_error>  (896) 


$$$$
C2949-P202
     RDKit          3D

 76 80  0  0  0  0  0  0  0  0999 V2000
   -0.3957   -6.2816   35.1230 C   0  0  0  0  0  0  0  0  0  0  0  0
   -0.2985   -6.5580   33.6511 C   0  0  0  0  0  0  0  0  0  0  0  0
   -1.0199   -7.5866   33.0925 C   0  0  0  0  0  0  0  0  0  0  0  0
   -0.7725   -7.8242   31.7689 C   0  0  0  0  0  0  0  0  0  0  0  0
   -1.3201   -8.8959   31.1474 O   0  0  0  0  0  0  0  0  0  0  0  0
    0.0630   -7.1315   30.9964 N   0  0  0  0  0  0  0  0  0  0  0  0
    0.6748   -6.1082   31.6092 C   0  0  0  0  0  0  0  0  0  0  0  0
    1.4661   -5.1661   30.7502 C   0  0  0  0  0  0  0  0  0  0  0  0
    0.5731   -4.0075   30.3266 C   0  0  0  0  0  0  0  0  0  0  0  0
    0.3455   -3.0791   31.4694 N   0  0  0  0  0  0  0  0  0  0  0  0
   -0.9932   -2.0783   31.3146 S   0  0  0  0  0  0  0  0  0  0  0  0
   -2.1356   -2.9390   31.1106 O   0  0  0  0  0  0  0  0  0  0  0  0
   -0.9661   -1.1272   32.3987 O   0  0  0  0  0  0  0  0  0  0  0  0
   -0.5799   -1.3017   29.8931 N   0  0  0  0  0  0  0  0  0  0  0  0
    0.6036   -0.4214   29.8995 C   0  0  0  0  0  0  0  0  0  0  0  0
    0.4478    0.4037   28.6287 C   0  0  0  0  0  0  0  0  0  0  0  0
   -1.0325    0.7439   28.6488 C   0  0  0  0  0  0  0  0  0  0  0  0
   -1.6009    1.2741   27.4027 N   0  0  0  0  0  0  0  0  0  0  0  0
   -0.8533    2.3775   26.7876 C   0  0  0  0  0  0  0  0  0  0  0  0
   -0.8282    3.6917   27.5766 C   0  0  0  0  0  0  0  0  0  0  0  0
   -0.0533    4.8040   26.8241 C   0  0  0  0  0  0  0  0  0  0  0  0
    1.3510    4.4229   26.6480 N   0  0  0  0  0  0  0  0  0  0  0  0
   -0.1246    6.1129   27.5373 C   0  0  0  0  0  0  0  0  0  0  0  0
   -0.0625    6.0654   28.9045 O   0  0  0  0  0  0  0  0  0  0  0  0
   -0.1118    7.3633   29.2965 C   0  0  0  0  0  0  0  0  0  0  0  0
   -0.1465    8.2341   28.3183 N   0  0  0  0  0  0  0  0  0  0  0  0
   -0.1356    7.4506   27.1744 C   0  0  0  0  0  0  0  0  0  0  0  0
   -0.0086    8.0273   25.8329 C   0  0  0  0  0  0  0  0  0  0  0  0
    0.8802    8.7518   25.6095 O   0  0  0  0  0  0  0  0  0  0  0  0
   -1.1115    7.4730   24.8965 N   0  0  0  0  0  0  0  0  0  0  0  0
   -1.3892    7.7547   23.5865 C   0  0  0  0  0  0  0  0  0  0  0  0
   -0.7782    8.7681   22.9492 C   0  0  0  0  0  0  0  0  0  0  0  0
   -1.0382    9.0858   21.6433 N   0  0  0  0  0  0  0  0  0  0  0  0
   -1.9291    8.4137   20.8450 C   0  0  0  0  0  0  0  0  0  0  0  0
   -2.1386    8.7475   19.6848 O   0  0  0  0  0  0  0  0  0  0  0  0
   -2.6150    7.2552   21.4700 C   0  0  0  0  0  0  0  0  0  0  0  0
   -3.4848    6.4884   20.6850 C   0  0  0  0  0  0  0  0  0  0  0  0
   -4.1003    5.3713   21.2345 C   0  0  0  0  0  0  0  0  0  0  0  0
   -3.8547    5.0275   22.5615 C   0  0  0  0  0  0  0  0  0  0  0  0
   -3.0008    5.8035   23.3514 C   0  0  0  0  0  0  0  0  0  0  0  0
   -2.3578    6.9321   22.8194 C   0  0  0  0  0  0  0  0  0  0  0  0
   -1.6493   -0.5891   29.1530 C   0  0  0  0  0  0  0  0  0  0  0  0
    0.5503   -5.8032   32.9183 N   0  0  0  0  0  0  0  0  0  0  0  0
    0.1015   -5.3391   35.3729 H   0  0  0  0  0  0  0  0  0  0  0  0
   -1.4415   -6.2058   35.4333 H   0  0  0  0  0  0  0  0  0  0  0  0
    0.0857   -7.0871   35.6864 H   0  0  0  0  0  0  0  0  0  0  0  0
   -1.6977   -8.2023   33.6638 H   0  0  0  0  0  0  0  0  0  0  0  0
   -0.6494   -9.0618   30.4552 H   0  0  0  0  0  0  0  0  0  0  0  0
    1.8240   -5.7009   29.8629 H   0  0  0  0  0  0  0  0  0  0  0  0
    2.3462   -4.8120   31.2990 H   0  0  0  0  0  0  0  0  0  0  0  0
    1.0753   -3.4508   29.5283 H   0  0  0  0  0  0  0  0  0  0  0  0
   -0.3755   -4.3879   29.9325 H   0  0  0  0  0  0  0  0  0  0  0  0
    0.2453   -3.5808   32.3605 H   0  0  0  0  0  0  0  0  0  0  0  0
    1.5311   -0.9992   29.8756 H   0  0  0  0  0  0  0  0  0  0  0  0
    0.6057    0.2336   30.7775 H   0  0  0  0  0  0  0  0  0  0  0  0
    0.7021   -0.2025   27.7512 H   0  0  0  0  0  0  0  0  0  0  0  0
    1.0961    1.2849   28.6416 H   0  0  0  0  0  0  0  0  0  0  0  0
   -1.1926    1.4892   29.4347 H   0  0  0  0  0  0  0  0  0  0  0  0
   -2.5655    1.5689   27.5601 H   0  0  0  0  0  0  0  0  0  0  0  0
    0.1648    2.0480   26.5617 H   0  0  0  0  0  0  0  0  0  0  0  0
   -1.3233    2.5742   25.8161 H   0  0  0  0  0  0  0  0  0  0  0  0
   -1.8592    4.0249   27.7564 H   0  0  0  0  0  0  0  0  0  0  0  0
   -0.3773    3.5239   28.5630 H   0  0  0  0  0  0  0  0  0  0  0  0
   -0.4978    4.9123   25.8291 H   0  0  0  0  0  0  0  0  0  0  0  0
    1.7939    4.3782   27.5674 H   0  0  0  0  0  0  0  0  0  0  0  0
    1.8462    5.1603   26.1449 H   0  0  0  0  0  0  0  0  0  0  0  0
   -0.1135    7.5470   30.3618 H   0  0  0  0  0  0  0  0  0  0  0  0
   -1.6774    6.8024   25.4007 H   0  0  0  0  0  0  0  0  0  0  0  0
   -0.0515    9.4140   23.4327 H   0  0  0  0  0  0  0  0  0  0  0  0
   -0.5643    9.8703   21.2105 H   0  0  0  0  0  0  0  0  0  0  0  0
   -3.6615    6.7492   19.6440 H   0  0  0  0  0  0  0  0  0  0  0  0
   -4.7579    4.7552   20.6256 H   0  0  0  0  0  0  0  0  0  0  0  0
   -4.3232    4.1399   22.9826 H   0  0  0  0  0  0  0  0  0  0  0  0
   -2.8531    5.4852   24.3783 H   0  0  0  0  0  0  0  0  0  0  0  0
   -1.9945   -1.2210   28.3291 H   0  0  0  0  0  0  0  0  0  0  0  0
   -2.4648   -0.3546   29.8365 H   0  0  0  0  0  0  0  0  0  0  0  0
  1  2  1  0
  2  3  2  0
  3  4  1  0
  4  5  1  0
  4  6  2  0
  6  7  1  0
  7  8  1  0
  8  9  1  0
  9 10  1  0
 10 11  1  0
 11 12  2  0
 11 13  2  0
 11 14  1  0
 14 15  1  0
 15 16  1  0
 16 17  1  0
 17 18  1  0
 18 19  1  0
 19 20  1  0
 20 21  1  0
 21 22  1  0
 21 23  1  0
 23 24  1  0
 24 25  1  0
 25 26  2  0
 26 27  1  0
 27 28  1  0
 28 29  2  0
 28 30  1  0
 30 31  1  0
 31 32  2  0
 32 33  1  0
 33 34  1  0
 34 35  2  0
 34 36  1  0
 36 37  2  0
 37 38  1  0
 38 39  2  0
 39 40  1  0
 40 41  2  0
 17 42  1  0
  7 43  2  0
 43  2  1  0
 42 14  1  0
 27 23  2  0
 41 31  1  0
 41 36  1  0
  1 44  1  0
  1 45  1  0
  1 46  1  0
  3 47  1  0
  5 48  1  0
  8 49  1  0
  8 50  1  0
  9 51  1  0
  9 52  1  0
 10 53  1  0
 15 54  1  0
 15 55  1  0
 16 56  1  0
 16 57  1  0
 17 58  1  0
 18 59  1  0
 19 60  1  0
 19 61  1  0
 20 62  1  0
 20 63  1  0
 21 64  1  0
 22 65  1  0
 22 66  1  0
 25 67  1  0
 30 68  1  0
 32 69  1  0
 33 70  1  0
 37 71  1  0
 38 72  1  0
 39 73  1  0
 40 74  1  0
 42 75  1  0
 42 76  1  0
M  END
>  <Energy>  (897) 
-137.45906372666818

>  <compound_id>  (897) 
2949

>  <target_id>  (897) 
1

>  <reference_id>  (897) 
202

>  <inspiration_ids>  (897) 
[189, 202]

>  <energy_score>  (897) 
-137.64889083754505

>  <distance_score>  (897) 
1.0646488095102589

>  <path>  (897) 
/opt/xchem-fragalysis-2/maxwin/BulkDock/SCRATCH/505736/C2949-P202/C2949-P202.minimised.mol

>  <scratch_subdir>  (897) 
/opt/xchem-fragalysis-2/maxwin/BulkDock/SCRATCH/505736/C2949-P202

>  <fragmenstein_runtime>  (897) 
18.781081438064575

>  <fragmenstein_outcome>  (897) 
too moved

>  <fragmenstein_mode>  (897) 
expansion

>  <fragmenstein_error>  (897) 


$$$$
C2952-P190
     RDKit          3D

 51 54  0  0  0  0  0  0  0  0999 V2000
   -0.4942   -5.7533   36.1067 N   0  0  0  0  0  0  0  0  0  0  0  0
    0.6188   -6.2864   35.3765 C   0  0  0  0  0  0  0  0  0  0  0  0
    0.8222   -7.5617   35.9251 O   0  0  0  0  0  0  0  0  0  0  0  0
    1.9141   -5.6726   35.5028 N   0  0  0  0  0  0  0  0  0  0  0  0
    2.1708   -4.3494   35.5550 C   0  0  0  0  0  0  0  0  0  0  0  0
    3.3971   -3.7340   35.8780 C   0  0  0  0  0  0  0  0  0  0  0  0
    3.3087   -2.4009   35.8871 N   0  0  0  0  0  0  0  0  0  0  0  0
    2.0257   -2.1710   35.5607 N   0  0  0  0  0  0  0  0  0  0  0  0
    1.3126   -3.3069   35.3234 C   0  0  0  0  0  0  0  0  0  0  0  0
    0.2748   -6.4729   33.8744 C   0  0  0  0  0  0  0  0  0  0  0  0
   -0.5130   -7.4681   33.4004 C   0  0  0  0  0  0  0  0  0  0  0  0
   -0.5706   -7.6802   32.0320 N   0  0  0  0  0  0  0  0  0  0  0  0
   -1.1064   -8.6802   31.2919 N   0  0  0  0  0  0  0  0  0  0  0  0
   -0.4304   -8.5459   30.1428 C   0  0  0  0  0  0  0  0  0  0  0  0
    0.2717   -7.4002   29.9909 N   0  0  0  0  0  0  0  0  0  0  0  0
    0.1607   -6.8841   31.1877 C   0  0  0  0  0  0  0  0  0  0  0  0
    0.8563   -5.7709   31.7273 C   0  0  0  0  0  0  0  0  0  0  0  0
    1.6103   -4.8612   30.8061 C   0  0  0  0  0  0  0  0  0  0  0  0
    1.8557   -3.5056   31.4421 C   0  0  0  0  0  0  0  0  0  0  0  0
    0.8902   -2.4888   30.9868 N   0  0  0  0  0  0  0  0  0  0  0  0
   -0.6910   -2.5414   31.5500 S   0  0  0  0  0  0  0  0  0  0  0  0
   -0.6919   -1.9596   32.8702 O   0  0  0  0  0  0  0  0  0  0  0  0
   -1.2786   -3.8318   31.2770 O   0  0  0  0  0  0  0  0  0  0  0  0
   -1.3312   -1.4340   30.4696 N   0  0  0  0  0  0  0  0  0  0  0  0
   -1.2300   -1.7657   29.0156 C   0  0  0  0  0  0  0  0  0  0  0  0
   -1.0380   -0.4232   28.3252 C   0  0  0  0  0  0  0  0  0  0  0  0
   -0.3201    0.4101   29.3621 C   0  0  0  0  0  0  0  0  0  0  0  0
   -1.0047   -0.0031   30.6503 C   0  0  0  0  0  0  0  0  0  0  0  0
    0.9108   -5.5892   33.0085 N   0  0  0  0  0  0  0  0  0  0  0  0
   -0.0738   -5.2373   36.8787 H   0  0  0  0  0  0  0  0  0  0  0  0
   -0.9052   -5.0220   35.5245 H   0  0  0  0  0  0  0  0  0  0  0  0
    0.1490   -7.5674   36.6270 H   0  0  0  0  0  0  0  0  0  0  0  0
    2.6059   -6.3617   35.7674 H   0  0  0  0  0  0  0  0  0  0  0  0
    4.3426   -4.1981   36.1237 H   0  0  0  0  0  0  0  0  0  0  0  0
    1.7050   -1.2102   35.5015 H   0  0  0  0  0  0  0  0  0  0  0  0
    0.2794   -3.2443   35.0186 H   0  0  0  0  0  0  0  0  0  0  0  0
   -1.0235   -8.1828   34.0298 H   0  0  0  0  0  0  0  0  0  0  0  0
   -0.4705   -9.3039   29.3730 H   0  0  0  0  0  0  0  0  0  0  0  0
    1.0918   -4.7714   29.8450 H   0  0  0  0  0  0  0  0  0  0  0  0
    2.5743   -5.3486   30.6149 H   0  0  0  0  0  0  0  0  0  0  0  0
    2.8347   -3.1504   31.0931 H   0  0  0  0  0  0  0  0  0  0  0  0
    1.9224   -3.4932   32.5308 H   0  0  0  0  0  0  0  0  0  0  0  0
    1.2531   -1.5591   31.1963 H   0  0  0  0  0  0  0  0  0  0  0  0
   -0.3738   -2.4132   28.8039 H   0  0  0  0  0  0  0  0  0  0  0  0
   -2.1307   -2.2697   28.6693 H   0  0  0  0  0  0  0  0  0  0  0  0
   -0.4608   -0.5048   27.4066 H   0  0  0  0  0  0  0  0  0  0  0  0
   -2.0023    0.0256   28.0757 H   0  0  0  0  0  0  0  0  0  0  0  0
    0.7429    0.1432   29.3907 H   0  0  0  0  0  0  0  0  0  0  0  0
   -0.3984    1.4840   29.1717 H   0  0  0  0  0  0  0  0  0  0  0  0
   -1.9461    0.5375   30.7873 H   0  0  0  0  0  0  0  0  0  0  0  0
   -0.3694    0.2008   31.5159 H   0  0  0  0  0  0  0  0  0  0  0  0
  1  2  1  0
  2  3  1  0
  2  4  1  0
  4  5  1  0
  5  6  1  0
  6  7  2  0
  7  8  1  0
  8  9  1  0
  2 10  1  0
 10 11  2  0
 11 12  1  0
 12 13  1  0
 13 14  2  0
 14 15  1  0
 15 16  2  0
 16 17  1  0
 17 18  1  0
 18 19  1  0
 19 20  1  0
 20 21  1  0
 21 22  2  0
 21 23  2  0
 21 24  1  0
 24 25  1  0
 25 26  1  0
 26 27  1  0
 27 28  1  0
 17 29  2  0
  9  5  2  0
 29 10  1  0
 16 12  1  0
 28 24  1  0
  1 30  1  0
  1 31  1  0
  3 32  1  0
  4 33  1  0
  6 34  1  0
  8 35  1  0
  9 36  1  0
 11 37  1  0
 14 38  1  0
 18 39  1  0
 18 40  1  0
 19 41  1  0
 19 42  1  0
 20 43  1  0
 25 44  1  0
 25 45  1  0
 26 46  1  0
 26 47  1  0
 27 48  1  0
 27 49  1  0
 28 50  1  0
 28 51  1  0
M  END
>  <Energy>  (898) 
-279.5491613807589

>  <compound_id>  (898) 
2952

>  <target_id>  (898) 
1

>  <reference_id>  (898) 
190

>  <inspiration_ids>  (898) 
[190, 41]

>  <energy_score>  (898) 
-274.7853194793147

>  <distance_score>  (898) 
0.8835222535059903

>  <path>  (898) 
/opt/xchem-fragalysis-2/maxwin/BulkDock/SCRATCH/505736/C2952-P190/C2952-P190.minimised.mol

>  <scratch_subdir>  (898) 
/opt/xchem-fragalysis-2/maxwin/BulkDock/SCRATCH/505736/C2952-P190

>  <fragmenstein_runtime>  (898) 
4.385550498962402

>  <fragmenstein_outcome>  (898) 
acceptable

>  <fragmenstein_mode>  (898) 
expansion

>  <fragmenstein_error>  (898) 


$$$$
C2952-P41
     RDKit          3D

 51 54  0  0  0  0  0  0  0  0999 V2000
   -0.5737   -5.7564   36.1169 N   0  0  0  0  0  0  0  0  0  0  0  0
    0.5758   -6.2765   35.4360 C   0  0  0  0  0  0  0  0  0  0  0  0
    0.7611   -7.5544   35.9837 O   0  0  0  0  0  0  0  0  0  0  0  0
    1.8539   -5.6493   35.6341 N   0  0  0  0  0  0  0  0  0  0  0  0
    2.1239   -4.3288   35.6058 C   0  0  0  0  0  0  0  0  0  0  0  0
    3.3780   -3.7166   35.8064 C   0  0  0  0  0  0  0  0  0  0  0  0
    3.3079   -2.3837   35.7477 N   0  0  0  0  0  0  0  0  0  0  0  0
    2.0063   -2.1510   35.5063 N   0  0  0  0  0  0  0  0  0  0  0  0
    1.2614   -3.2863   35.3939 C   0  0  0  0  0  0  0  0  0  0  0  0
    0.3032   -6.4651   33.9206 C   0  0  0  0  0  0  0  0  0  0  0  0
   -0.5784   -7.3648   33.4180 C   0  0  0  0  0  0  0  0  0  0  0  0
   -0.6235   -7.5634   32.0462 N   0  0  0  0  0  0  0  0  0  0  0  0
   -1.2579   -8.4845   31.2772 N   0  0  0  0  0  0  0  0  0  0  0  0
   -0.5499   -8.3998   30.1408 C   0  0  0  0  0  0  0  0  0  0  0  0
    0.3143   -7.3637   30.0368 N   0  0  0  0  0  0  0  0  0  0  0  0
    0.2146   -6.8454   31.2314 C   0  0  0  0  0  0  0  0  0  0  0  0
    1.0027   -5.8120   31.7958 C   0  0  0  0  0  0  0  0  0  0  0  0
    1.8247   -4.9375   30.9029 C   0  0  0  0  0  0  0  0  0  0  0  0
    1.9711   -3.5488   31.4971 C   0  0  0  0  0  0  0  0  0  0  0  0
    0.9742   -2.6100   30.9512 N   0  0  0  0  0  0  0  0  0  0  0  0
   -0.5760   -2.6062   31.6016 S   0  0  0  0  0  0  0  0  0  0  0  0
   -0.5016   -1.9376   32.8779 O   0  0  0  0  0  0  0  0  0  0  0  0
   -1.1867   -3.9056   31.4464 O   0  0  0  0  0  0  0  0  0  0  0  0
   -1.2550   -1.5686   30.4895 N   0  0  0  0  0  0  0  0  0  0  0  0
   -1.3118   -2.0133   29.0715 C   0  0  0  0  0  0  0  0  0  0  0  0
   -1.2897   -0.7235   28.2656 C   0  0  0  0  0  0  0  0  0  0  0  0
   -0.4315    0.1885   29.1155 C   0  0  0  0  0  0  0  0  0  0  0  0
   -0.8923   -0.1400   30.5251 C   0  0  0  0  0  0  0  0  0  0  0  0
    1.0694   -5.6644   33.0799 N   0  0  0  0  0  0  0  0  0  0  0  0
   -0.1886   -5.2942   36.9401 H   0  0  0  0  0  0  0  0  0  0  0  0
   -0.9274   -4.9859   35.5502 H   0  0  0  0  0  0  0  0  0  0  0  0
   -0.0398   -7.6314   36.5294 H   0  0  0  0  0  0  0  0  0  0  0  0
    2.5801   -6.3452   35.7372 H   0  0  0  0  0  0  0  0  0  0  0  0
    4.3331   -4.1831   36.0058 H   0  0  0  0  0  0  0  0  0  0  0  0
    1.6931   -1.1904   35.4115 H   0  0  0  0  0  0  0  0  0  0  0  0
    0.2088   -3.2164   35.1701 H   0  0  0  0  0  0  0  0  0  0  0  0
   -1.1957   -8.0090   34.0276 H   0  0  0  0  0  0  0  0  0  0  0  0
   -0.6539   -9.1338   29.3515 H   0  0  0  0  0  0  0  0  0  0  0  0
    1.4010   -4.9004   29.8935 H   0  0  0  0  0  0  0  0  0  0  0  0
    2.8128   -5.4068   30.8319 H   0  0  0  0  0  0  0  0  0  0  0  0
    2.9472   -3.1556   31.1830 H   0  0  0  0  0  0  0  0  0  0  0  0
    1.9812   -3.4968   32.5870 H   0  0  0  0  0  0  0  0  0  0  0  0
    1.3307   -1.6583   31.0338 H   0  0  0  0  0  0  0  0  0  0  0  0
   -0.4513   -2.6344   28.8045 H   0  0  0  0  0  0  0  0  0  0  0  0
   -2.2228   -2.5793   28.9045 H   0  0  0  0  0  0  0  0  0  0  0  0
   -0.8877   -0.8623   27.2609 H   0  0  0  0  0  0  0  0  0  0  0  0
   -2.2990   -0.3125   28.1730 H   0  0  0  0  0  0  0  0  0  0  0  0
    0.6275   -0.0681   28.9919 H   0  0  0  0  0  0  0  0  0  0  0  0
   -0.5598    1.2457   28.8679 H   0  0  0  0  0  0  0  0  0  0  0  0
   -1.7984    0.4079   30.7868 H   0  0  0  0  0  0  0  0  0  0  0  0
   -0.1206    0.1055   31.2590 H   0  0  0  0  0  0  0  0  0  0  0  0
  1  2  1  0
  2  3  1  0
  2  4  1  0
  4  5  1  0
  5  6  1  0
  6  7  2  0
  7  8  1  0
  8  9  1  0
  2 10  1  0
 10 11  2  0
 11 12  1  0
 12 13  1  0
 13 14  2  0
 14 15  1  0
 15 16  2  0
 16 17  1  0
 17 18  1  0
 18 19  1  0
 19 20  1  0
 20 21  1  0
 21 22  2  0
 21 23  2  0
 21 24  1  0
 24 25  1  0
 25 26  1  0
 26 27  1  0
 27 28  1  0
 17 29  2  0
  9  5  2  0
 29 10  1  0
 16 12  1  0
 28 24  1  0
  1 30  1  0
  1 31  1  0
  3 32  1  0
  4 33  1  0
  6 34  1  0
  8 35  1  0
  9 36  1  0
 11 37  1  0
 14 38  1  0
 18 39  1  0
 18 40  1  0
 19 41  1  0
 19 42  1  0
 20 43  1  0
 25 44  1  0
 25 45  1  0
 26 46  1  0
 26 47  1  0
 27 48  1  0
 27 49  1  0
 28 50  1  0
 28 51  1  0
M  END
>  <Energy>  (899) 
-281.66192523337804

>  <compound_id>  (899) 
2952

>  <target_id>  (899) 
1

>  <reference_id>  (899) 
41

>  <inspiration_ids>  (899) 
[190, 41]

>  <energy_score>  (899) 
-276.8980833319311

>  <distance_score>  (899) 
0.9019984484870078

>  <path>  (899) 
/opt/xchem-fragalysis-2/maxwin/BulkDock/SCRATCH/505736/C2952-P41/C2952-P41.minimised.mol

>  <scratch_subdir>  (899) 
/opt/xchem-fragalysis-2/maxwin/BulkDock/SCRATCH/505736/C2952-P41

>  <fragmenstein_runtime>  (899) 
5.114809036254883

>  <fragmenstein_outcome>  (899) 
acceptable

>  <fragmenstein_mode>  (899) 
expansion

>  <fragmenstein_error>  (899) 


$$$$
C2953-P190
     RDKit          3D

 62 65  0  0  0  0  0  0  0  0999 V2000
    0.1638   -2.2378   35.1252 N   0  0  0  0  0  0  0  0  0  0  0  0
   -0.8337   -3.1318   34.6010 C   0  0  0  0  0  0  0  0  0  0  0  0
   -1.8293   -3.2230   35.5763 O   0  0  0  0  0  0  0  0  0  0  0  0
   -1.3679   -2.4689   33.4226 N   0  0  0  0  0  0  0  0  0  0  0  0
   -1.8570   -1.0569   33.3641 C   0  0  0  0  0  0  0  0  0  0  0  0
   -0.8377    0.0909   33.2054 C   0  0  0  0  0  0  0  0  0  0  0  0
   -0.8618    0.5346   31.8282 N   0  0  0  0  0  0  0  0  0  0  0  0
   -2.0993    0.1725   31.2531 N   0  0  0  0  0  0  0  0  0  0  0  0
   -2.7437   -0.8073   32.1261 C   0  0  0  0  0  0  0  0  0  0  0  0
   -0.2135   -4.6108   34.2974 C   0  0  0  0  0  0  0  0  0  0  0  0
   -1.1665   -5.5638   33.5550 C   0  0  0  0  0  0  0  0  0  0  0  0
   -0.4404   -6.2255   32.4093 C   0  0  0  0  0  0  0  0  0  0  0  0
   -0.7343   -7.6123   32.3296 O   0  0  0  0  0  0  0  0  0  0  0  0
    0.9154   -5.9388   32.7898 N   0  0  0  0  0  0  0  0  0  0  0  0
    1.8486   -5.9322   31.6849 C   0  0  0  0  0  0  0  0  0  0  0  0
    2.6912   -4.6640   31.4229 C   0  0  0  0  0  0  0  0  0  0  0  0
    2.2172   -3.8442   30.2217 C   0  0  0  0  0  0  0  0  0  0  0  0
    0.7945   -3.9841   29.9650 N   0  0  0  0  0  0  0  0  0  0  0  0
   -0.2360   -2.7878   30.4486 S   0  0  0  0  0  0  0  0  0  0  0  0
    0.4012   -2.1668   31.5831 O   0  0  0  0  0  0  0  0  0  0  0  0
   -1.5201   -3.4421   30.5266 O   0  0  0  0  0  0  0  0  0  0  0  0
   -0.1264   -1.8218   29.1041 N   0  0  0  0  0  0  0  0  0  0  0  0
   -1.3888   -1.3087   28.5452 C   0  0  0  0  0  0  0  0  0  0  0  0
   -1.0791    0.0521   27.9565 C   0  0  0  0  0  0  0  0  0  0  0  0
    0.1899    0.5121   28.6296 C   0  0  0  0  0  0  0  0  0  0  0  0
    0.8925   -0.7580   29.0650 C   0  0  0  0  0  0  0  0  0  0  0  0
    2.9286   -3.8300   32.7121 C   0  0  0  0  0  0  0  0  0  0  0  0
    2.1831   -4.3536   33.8670 N   0  0  0  0  0  0  0  0  0  0  0  0
    0.8977   -4.6333   33.3481 N   0  0  0  0  0  0  0  0  0  0  0  0
    0.9072   -2.2005   34.4369 H   0  0  0  0  0  0  0  0  0  0  0  0
    0.5192   -2.6615   35.9750 H   0  0  0  0  0  0  0  0  0  0  0  0
   -2.5843   -3.5538   35.0487 H   0  0  0  0  0  0  0  0  0  0  0  0
   -0.5632   -2.4635   32.7945 H   0  0  0  0  0  0  0  0  0  0  0  0
   -2.4618   -0.8827   34.2627 H   0  0  0  0  0  0  0  0  0  0  0  0
   -1.1435    0.9198   33.8568 H   0  0  0  0  0  0  0  0  0  0  0  0
    0.1773   -0.1822   33.5025 H   0  0  0  0  0  0  0  0  0  0  0  0
   -0.5685    1.5053   31.7261 H   0  0  0  0  0  0  0  0  0  0  0  0
   -2.7276    0.9399   31.0223 H   0  0  0  0  0  0  0  0  0  0  0  0
   -2.9821   -1.7282   31.5907 H   0  0  0  0  0  0  0  0  0  0  0  0
   -3.7021   -0.3995   32.4711 H   0  0  0  0  0  0  0  0  0  0  0  0
    0.0596   -5.0793   35.2546 H   0  0  0  0  0  0  0  0  0  0  0  0
   -1.6266   -6.2838   34.2374 H   0  0  0  0  0  0  0  0  0  0  0  0
   -1.8857   -4.9459   33.0432 H   0  0  0  0  0  0  0  0  0  0  0  0
   -0.7312   -5.7745   31.4556 H   0  0  0  0  0  0  0  0  0  0  0  0
   -0.3883   -7.9803   33.1596 H   0  0  0  0  0  0  0  0  0  0  0  0
    1.4428   -6.3580   30.7605 H   0  0  0  0  0  0  0  0  0  0  0  0
    2.5613   -6.6359   32.0786 H   0  0  0  0  0  0  0  0  0  0  0  0
    3.6945   -4.9972   31.1289 H   0  0  0  0  0  0  0  0  0  0  0  0
    2.5398   -2.8008   30.2842 H   0  0  0  0  0  0  0  0  0  0  0  0
    2.7196   -4.2340   29.3254 H   0  0  0  0  0  0  0  0  0  0  0  0
    0.4947   -4.3695   29.0716 H   0  0  0  0  0  0  0  0  0  0  0  0
   -2.1426   -1.2109   29.3142 H   0  0  0  0  0  0  0  0  0  0  0  0
   -1.7814   -1.9882   27.7906 H   0  0  0  0  0  0  0  0  0  0  0  0
   -1.8942    0.7662   28.0996 H   0  0  0  0  0  0  0  0  0  0  0  0
   -0.9287   -0.0225   26.8844 H   0  0  0  0  0  0  0  0  0  0  0  0
   -0.0392    1.1505   29.4841 H   0  0  0  0  0  0  0  0  0  0  0  0
    0.8155    1.1107   27.9592 H   0  0  0  0  0  0  0  0  0  0  0  0
    1.6470   -1.0457   28.3240 H   0  0  0  0  0  0  0  0  0  0  0  0
    1.4130   -0.5993   30.0122 H   0  0  0  0  0  0  0  0  0  0  0  0
    3.9950   -3.8605   32.9663 H   0  0  0  0  0  0  0  0  0  0  0  0
    2.6878   -2.7724   32.5572 H   0  0  0  0  0  0  0  0  0  0  0  0
    2.1875   -3.6607   34.6131 H   0  0  0  0  0  0  0  0  0  0  0  0
  1  2  1  0
  2  3  1  0
  2  4  1  0
  4  5  1  0
  5  6  1  0
  6  7  1  0
  7  8  1  0
  8  9  1  0
  2 10  1  0
 10 11  1  0
 11 12  1  0
 12 13  1  0
 12 14  1  0
 14 15  1  0
 15 16  1  0
 16 17  1  0
 17 18  1  0
 18 19  1  0
 19 20  2  0
 19 21  2  0
 19 22  1  0
 22 23  1  0
 23 24  1  0
 24 25  1  0
 25 26  1  0
 16 27  1  0
 27 28  1  0
 28 29  1  0
  9  5  1  0
 29 10  1  0
 29 14  1  0
 26 22  1  0
  1 30  1  0
  1 31  1  0
  3 32  1  0
  4 33  1  0
  5 34  1  0
  6 35  1  0
  6 36  1  0
  7 37  1  0
  8 38  1  0
  9 39  1  0
  9 40  1  0
 10 41  1  0
 11 42  1  0
 11 43  1  0
 12 44  1  0
 13 45  1  0
 15 46  1  0
 15 47  1  0
 16 48  1  0
 17 49  1  0
 17 50  1  0
 18 51  1  0
 23 52  1  0
 23 53  1  0
 24 54  1  0
 24 55  1  0
 25 56  1  0
 25 57  1  0
 26 58  1  0
 26 59  1  0
 27 60  1  0
 27 61  1  0
 28 62  1  0
M  END
>  <Energy>  (900) 
-165.98862399164113

>  <compound_id>  (900) 
2953

>  <target_id>  (900) 
1

>  <reference_id>  (900) 
190

>  <inspiration_ids>  (900) 
[190, 44]

>  <energy_score>  (900) 
-60.83810583128593

>  <distance_score>  (900) 
3.308207428754645

>  <path>  (900) 
/opt/xchem-fragalysis-2/maxwin/BulkDock/SCRATCH/505736/C2953-P190/C2953-P190.minimised.mol

>  <scratch_subdir>  (900) 
/opt/xchem-fragalysis-2/maxwin/BulkDock/SCRATCH/505736/C2953-P190

>  <fragmenstein_runtime>  (900) 
9.4138662815094

>  <fragmenstein_outcome>  (900) 
too moved

>  <fragmenstein_mode>  (900) 
expansion

>  <fragmenstein_error>  (900) 


$$$$
C2953-P44
     RDKit          3D

 62 65  0  0  0  0  0  0  0  0999 V2000
    0.4911   -3.0537   33.6456 N   0  0  0  0  0  0  0  0  0  0  0  0
   -0.7087   -3.7475   33.9925 C   0  0  0  0  0  0  0  0  0  0  0  0
   -1.4897   -4.0793   32.8971 O   0  0  0  0  0  0  0  0  0  0  0  0
   -1.4919   -2.6587   34.5616 N   0  0  0  0  0  0  0  0  0  0  0  0
   -1.9043   -1.4320   33.6895 C   0  0  0  0  0  0  0  0  0  0  0  0
   -0.9300   -0.2519   33.4914 C   0  0  0  0  0  0  0  0  0  0  0  0
   -1.5112    0.5659   32.4410 N   0  0  0  0  0  0  0  0  0  0  0  0
   -2.1963   -0.3162   31.5469 N   0  0  0  0  0  0  0  0  0  0  0  0
   -2.6562   -1.4710   32.3266 C   0  0  0  0  0  0  0  0  0  0  0  0
   -0.2485   -5.1849   34.6788 C   0  0  0  0  0  0  0  0  0  0  0  0
   -1.1567   -6.4129   34.5386 C   0  0  0  0  0  0  0  0  0  0  0  0
   -0.9424   -6.8907   33.1031 C   0  0  0  0  0  0  0  0  0  0  0  0
   -1.3525   -8.2222   32.8659 O   0  0  0  0  0  0  0  0  0  0  0  0
    0.4955   -6.6918   32.8985 N   0  0  0  0  0  0  0  0  0  0  0  0
    0.7050   -5.9636   31.6411 C   0  0  0  0  0  0  0  0  0  0  0  0
    2.1219   -5.4183   31.4677 C   0  0  0  0  0  0  0  0  0  0  0  0
    2.1972   -3.9741   30.9532 C   0  0  0  0  0  0  0  0  0  0  0  0
    1.2704   -3.6473   29.8588 N   0  0  0  0  0  0  0  0  0  0  0  0
   -0.0932   -2.7429   30.1983 S   0  0  0  0  0  0  0  0  0  0  0  0
    0.2060   -1.9060   31.3302 O   0  0  0  0  0  0  0  0  0  0  0  0
   -1.2047   -3.6568   30.1653 O   0  0  0  0  0  0  0  0  0  0  0  0
   -0.1142   -1.7962   28.8333 N   0  0  0  0  0  0  0  0  0  0  0  0
   -1.4457   -1.3188   28.3831 C   0  0  0  0  0  0  0  0  0  0  0  0
   -1.2266    0.1058   27.9013 C   0  0  0  0  0  0  0  0  0  0  0  0
   -0.0501    0.5818   28.7224 C   0  0  0  0  0  0  0  0  0  0  0  0
    0.8248   -0.6533   28.7948 C   0  0  0  0  0  0  0  0  0  0  0  0
    2.8912   -5.5462   32.7951 C   0  0  0  0  0  0  0  0  0  0  0  0
    2.1064   -5.1060   33.9367 N   0  0  0  0  0  0  0  0  0  0  0  0
    0.9264   -5.8955   34.0496 N   0  0  0  0  0  0  0  0  0  0  0  0
    0.2678   -2.5132   32.8069 H   0  0  0  0  0  0  0  0  0  0  0  0
    0.6955   -2.3758   34.3686 H   0  0  0  0  0  0  0  0  0  0  0  0
   -2.3538   -3.9639   33.3496 H   0  0  0  0  0  0  0  0  0  0  0  0
   -1.0551   -2.3294   35.4160 H   0  0  0  0  0  0  0  0  0  0  0  0
   -2.6680   -1.0086   34.3632 H   0  0  0  0  0  0  0  0  0  0  0  0
   -0.8496    0.3308   34.4164 H   0  0  0  0  0  0  0  0  0  0  0  0
    0.0879   -0.5380   33.2316 H   0  0  0  0  0  0  0  0  0  0  0  0
   -0.7382    1.0347   31.9550 H   0  0  0  0  0  0  0  0  0  0  0  0
   -2.9631    0.1209   31.0308 H   0  0  0  0  0  0  0  0  0  0  0  0
   -3.7346   -1.3911   32.5127 H   0  0  0  0  0  0  0  0  0  0  0  0
   -2.5166   -2.3799   31.7540 H   0  0  0  0  0  0  0  0  0  0  0  0
   -0.0165   -4.9890   35.7330 H   0  0  0  0  0  0  0  0  0  0  0  0
   -0.8398   -7.2006   35.2414 H   0  0  0  0  0  0  0  0  0  0  0  0
   -2.1838   -6.2393   34.7989 H   0  0  0  0  0  0  0  0  0  0  0  0
   -1.5390   -6.2980   32.4150 H   0  0  0  0  0  0  0  0  0  0  0  0
   -0.9690   -8.7533   33.5909 H   0  0  0  0  0  0  0  0  0  0  0  0
    0.0004   -5.1496   31.5518 H   0  0  0  0  0  0  0  0  0  0  0  0
    0.4851   -6.6401   30.8047 H   0  0  0  0  0  0  0  0  0  0  0  0
    2.6204   -6.0399   30.7170 H   0  0  0  0  0  0  0  0  0  0  0  0
    2.1553   -3.2354   31.7523 H   0  0  0  0  0  0  0  0  0  0  0  0
    3.2046   -3.8327   30.5364 H   0  0  0  0  0  0  0  0  0  0  0  0
    1.0408   -4.3833   29.1945 H   0  0  0  0  0  0  0  0  0  0  0  0
   -1.8251   -1.9419   27.5753 H   0  0  0  0  0  0  0  0  0  0  0  0
   -2.1724   -1.3327   29.1943 H   0  0  0  0  0  0  0  0  0  0  0  0
   -2.1121    0.7338   28.0305 H   0  0  0  0  0  0  0  0  0  0  0  0
   -0.9671    0.1123   26.8383 H   0  0  0  0  0  0  0  0  0  0  0  0
   -0.3764    0.8815   29.7213 H   0  0  0  0  0  0  0  0  0  0  0  0
    0.4654    1.4316   28.2663 H   0  0  0  0  0  0  0  0  0  0  0  0
    1.4326   -0.7498   27.8875 H   0  0  0  0  0  0  0  0  0  0  0  0
    1.5146   -0.6089   29.6415 H   0  0  0  0  0  0  0  0  0  0  0  0
    3.8303   -4.9829   32.7539 H   0  0  0  0  0  0  0  0  0  0  0  0
    3.1600   -6.5836   32.9870 H   0  0  0  0  0  0  0  0  0  0  0  0
    1.8261   -4.1265   33.7785 H   0  0  0  0  0  0  0  0  0  0  0  0
  1  2  1  0
  2  3  1  0
  2  4  1  0
  4  5  1  0
  5  6  1  0
  6  7  1  0
  7  8  1  0
  8  9  1  0
  2 10  1  0
 10 11  1  0
 11 12  1  0
 12 13  1  0
 12 14  1  0
 14 15  1  0
 15 16  1  0
 16 17  1  0
 17 18  1  0
 18 19  1  0
 19 20  2  0
 19 21  2  0
 19 22  1  0
 22 23  1  0
 23 24  1  0
 24 25  1  0
 25 26  1  0
 16 27  1  0
 27 28  1  0
 28 29  1  0
  9  5  1  0
 29 10  1  0
 29 14  1  0
 26 22  1  0
  1 30  1  0
  1 31  1  0
  3 32  1  0
  4 33  1  0
  5 34  1  0
  6 35  1  0
  6 36  1  0
  7 37  1  0
  8 38  1  0
  9 39  1  0
  9 40  1  0
 10 41  1  0
 11 42  1  0
 11 43  1  0
 12 44  1  0
 13 45  1  0
 15 46  1  0
 15 47  1  0
 16 48  1  0
 17 49  1  0
 17 50  1  0
 18 51  1  0
 23 52  1  0
 23 53  1  0
 24 54  1  0
 24 55  1  0
 25 56  1  0
 25 57  1  0
 26 58  1  0
 26 59  1  0
 27 60  1  0
 27 61  1  0
 28 62  1  0
M  END
>  <Energy>  (901) 
-149.6994501951504

>  <compound_id>  (901) 
2953

>  <target_id>  (901) 
1

>  <reference_id>  (901) 
44

>  <inspiration_ids>  (901) 
[190, 44]

>  <energy_score>  (901) 
-44.5489320347933

>  <distance_score>  (901) 
3.4483162973935655

>  <path>  (901) 
/opt/xchem-fragalysis-2/maxwin/BulkDock/SCRATCH/505736/C2953-P44/C2953-P44.minimised.mol

>  <scratch_subdir>  (901) 
/opt/xchem-fragalysis-2/maxwin/BulkDock/SCRATCH/505736/C2953-P44

>  <fragmenstein_runtime>  (901) 
9.65336799621582

>  <fragmenstein_outcome>  (901) 
too moved

>  <fragmenstein_mode>  (901) 
expansion

>  <fragmenstein_error>  (901) 


$$$$
C2957-P190
     RDKit          3D

 51 54  0  0  0  0  0  0  0  0999 V2000
    2.5552   -3.3826   30.9812 O   0  0  0  0  0  0  0  0  0  0  0  0
    2.7672   -1.9584   31.0890 S   0  0  0  0  0  0  0  0  0  0  0  0
    3.9853   -1.3496   30.6252 O   0  0  0  0  0  0  0  0  0  0  0  0
    2.5544   -1.4559   32.6644 N   0  0  0  0  0  0  0  0  0  0  0  0
    3.1467   -2.2077   33.7954 C   0  0  0  0  0  0  0  0  0  0  0  0
    2.9437   -3.7184   33.8791 C   0  0  0  0  0  0  0  0  0  0  0  0
    1.5420   -4.2317   33.6712 C   0  0  0  0  0  0  0  0  0  0  0  0
    0.6406   -3.4721   33.1291 N   0  0  0  0  0  0  0  0  0  0  0  0
   -0.4906   -4.0216   32.5621 C   0  0  0  0  0  0  0  0  0  0  0  0
   -1.2852   -2.9937   31.7429 C   0  0  0  0  0  0  0  0  0  0  0  0
   -0.2265   -2.1150   30.5995 C   0  0  0  0  0  0  0  0  0  0  0  0
   -0.2228   -0.3600   29.3663 C   0  0  0  0  0  0  0  0  0  0  0  0
   -1.2331    0.1218   28.3430 C   0  0  0  0  0  0  0  0  0  0  0  0
   -1.1562    1.2666   27.5200 C   0  0  0  0  0  0  0  0  0  0  0  0
   -0.1346    2.1172   27.5031 N   0  0  0  0  0  0  0  0  0  0  0  0
    0.8273    1.8403   28.3851 C   0  0  0  0  0  0  0  0  0  0  0  0
    0.8278    0.7363   29.2657 C   0  0  0  0  0  0  0  0  0  0  0  0
   -0.7821   -5.3266   32.7099 C   0  0  0  0  0  0  0  0  0  0  0  0
    0.0398   -6.1013   33.5056 N   0  0  0  0  0  0  0  0  0  0  0  0
   -0.1137   -7.3562   33.9779 N   0  0  0  0  0  0  0  0  0  0  0  0
    0.9104   -7.4427   34.8329 C   0  0  0  0  0  0  0  0  0  0  0  0
    1.8235   -6.4340   34.7836 N   0  0  0  0  0  0  0  0  0  0  0  0
    1.2177   -5.5880   33.9865 C   0  0  0  0  0  0  0  0  0  0  0  0
    1.4602   -1.1333   30.3516 N   0  0  0  0  0  0  0  0  0  0  0  0
   -0.0717   -0.3393   31.4257 C   0  0  0  0  0  0  0  0  0  0  0  0
   -1.7853   -0.9195   30.5202 C   0  0  0  0  0  0  0  0  0  0  0  0
   -1.2763   -2.1561   28.9828 C   0  0  0  0  0  0  0  0  0  0  0  0
    0.7247   -2.0813   28.7653 C   0  0  0  0  0  0  0  0  0  0  0  0
    2.8158   -0.4705   32.6947 H   0  0  0  0  0  0  0  0  0  0  0  0
    4.2199   -1.9846   33.8256 H   0  0  0  0  0  0  0  0  0  0  0  0
    2.7206   -1.7601   34.7027 H   0  0  0  0  0  0  0  0  0  0  0  0
    3.2916   -4.0602   34.8620 H   0  0  0  0  0  0  0  0  0  0  0  0
    3.5864   -4.2178   33.1440 H   0  0  0  0  0  0  0  0  0  0  0  0
   -2.1043   -3.4754   31.2064 H   0  0  0  0  0  0  0  0  0  0  0  0
   -1.6773   -2.3118   32.5096 H   0  0  0  0  0  0  0  0  0  0  0  0
    0.4745   -2.1425   31.4384 H   0  0  0  0  0  0  0  0  0  0  0  0
    0.1144   -3.0953   30.1723 H   0  0  0  0  0  0  0  0  0  0  0  0
   -2.2030   -0.3393   28.1715 H   0  0  0  0  0  0  0  0  0  0  0  0
   -1.9736    1.5091   26.8444 H   0  0  0  0  0  0  0  0  0  0  0  0
    1.6560    2.5451   28.3989 H   0  0  0  0  0  0  0  0  0  0  0  0
    1.7242    0.7878   29.8913 H   0  0  0  0  0  0  0  0  0  0  0  0
   -1.6214   -5.8408   32.2888 H   0  0  0  0  0  0  0  0  0  0  0  0
    1.0049   -8.2772   35.5098 H   0  0  0  0  0  0  0  0  0  0  0  0
    0.0210    0.7569   31.4402 H   0  0  0  0  0  0  0  0  0  0  0  0
   -0.0175   -0.7052   32.4648 H   0  0  0  0  0  0  0  0  0  0  0  0
   -2.5478   -1.3467   31.1769 H   0  0  0  0  0  0  0  0  0  0  0  0
   -2.3068    0.0124   30.2401 H   0  0  0  0  0  0  0  0  0  0  0  0
   -1.7751   -2.0480   28.0133 H   0  0  0  0  0  0  0  0  0  0  0  0
   -1.5608   -3.1930   29.2387 H   0  0  0  0  0  0  0  0  0  0  0  0
    1.0337   -1.4878   27.8937 H   0  0  0  0  0  0  0  0  0  0  0  0
    1.1865   -3.0803   28.7190 H   0  0  0  0  0  0  0  0  0  0  0  0
  1  2  2  0
  2  3  2  0
  2  4  1  0
  4  5  1  0
  5  6  1  0
  6  7  1  0
  7  8  2  0
  8  9  1  0
  9 10  1  0
 10 11  1  0
 11 12  1  0
 12 13  2  0
 13 14  1  0
 14 15  2  0
 15 16  1  0
 16 17  2  0
  9 18  2  0
 18 19  1  0
 19 20  1  0
 20 21  2  0
 21 22  1  0
 22 23  2  0
  2 24  1  0
 24 25  1  0
 25 26  1  0
 26 27  1  0
 27 28  1  0
 23  7  1  0
 28 24  1  0
 17 12  1  0
 23 19  1  0
  4 29  1  0
  5 30  1  0
  5 31  1  0
  6 32  1  0
  6 33  1  0
 10 34  1  0
 10 35  1  0
 11 36  1  0
 11 37  1  0
 13 38  1  0
 14 39  1  0
 16 40  1  0
 17 41  1  0
 18 42  1  0
 21 43  1  0
 25 44  1  0
 25 45  1  0
 26 46  1  0
 26 47  1  0
 27 48  1  0
 27 49  1  0
 28 50  1  0
 28 51  1  0
M  END
>  <Energy>  (902) 
896.48724433026132

>  <compound_id>  (902) 
2957

>  <target_id>  (902) 
1

>  <reference_id>  (902) 
190

>  <inspiration_ids>  (902) 
[190, 70]

>  <energy_score>  (902) 
982.4391800635865

>  <distance_score>  (902) 
3.747306774516563

>  <path>  (902) 
/opt/xchem-fragalysis-2/maxwin/BulkDock/SCRATCH/505736/C2957-P190/C2957-P190.minimised.mol

>  <scratch_subdir>  (902) 
/opt/xchem-fragalysis-2/maxwin/BulkDock/SCRATCH/505736/C2957-P190

>  <fragmenstein_runtime>  (902) 
12.286288022994995

>  <fragmenstein_outcome>  (902) 
too moved

>  <fragmenstein_mode>  (902) 
expansion

>  <fragmenstein_error>  (902) 


$$$$
C2957-P70
     RDKit          3D

 51 54  0  0  0  0  0  0  0  0999 V2000
   -2.4848   -0.7071   31.9974 O   0  0  0  0  0  0  0  0  0  0  0  0
   -1.7358   -1.8823   31.6051 S   0  0  0  0  0  0  0  0  0  0  0  0
   -2.4034   -3.1093   31.2403 O   0  0  0  0  0  0  0  0  0  0  0  0
   -0.6686   -2.1170   32.8958 N   0  0  0  0  0  0  0  0  0  0  0  0
   -1.0261   -3.1989   33.8561 C   0  0  0  0  0  0  0  0  0  0  0  0
    0.2009   -3.9419   34.4084 C   0  0  0  0  0  0  0  0  0  0  0  0
    0.9618   -4.5743   33.2822 C   0  0  0  0  0  0  0  0  0  0  0  0
    0.4429   -4.4833   32.1007 N   0  0  0  0  0  0  0  0  0  0  0  0
    1.2316   -4.6216   30.9981 C   0  0  0  0  0  0  0  0  0  0  0  0
    0.5997   -3.9127   29.8209 C   0  0  0  0  0  0  0  0  0  0  0  0
    0.9873   -2.1596   29.8428 C   0  0  0  0  0  0  0  0  0  0  0  0
    0.3012   -0.3792   28.8552 C   0  0  0  0  0  0  0  0  0  0  0  0
    0.9939    0.4977   27.8204 C   0  0  0  0  0  0  0  0  0  0  0  0
    0.4847    1.6493   27.1823 C   0  0  0  0  0  0  0  0  0  0  0  0
   -0.7430    2.1246   27.3504 N   0  0  0  0  0  0  0  0  0  0  0  0
   -1.4761    1.4586   28.2427 C   0  0  0  0  0  0  0  0  0  0  0  0
   -1.0457    0.3247   28.9705 C   0  0  0  0  0  0  0  0  0  0  0  0
    2.4566   -5.1683   31.0597 C   0  0  0  0  0  0  0  0  0  0  0  0
    2.9637   -5.4829   32.3164 N   0  0  0  0  0  0  0  0  0  0  0  0
    4.1820   -5.9398   32.6872 N   0  0  0  0  0  0  0  0  0  0  0  0
    4.0872   -5.9308   34.0217 C   0  0  0  0  0  0  0  0  0  0  0  0
    2.9261   -5.4306   34.5433 N   0  0  0  0  0  0  0  0  0  0  0  0
    2.2496   -5.1647   33.4517 C   0  0  0  0  0  0  0  0  0  0  0  0
   -0.6769   -1.4294   30.3981 N   0  0  0  0  0  0  0  0  0  0  0  0
   -0.5251   -2.1877   28.5410 C   0  0  0  0  0  0  0  0  0  0  0  0
    1.4015   -1.8751   27.9755 C   0  0  0  0  0  0  0  0  0  0  0  0
    2.2836   -0.7045   29.4165 C   0  0  0  0  0  0  0  0  0  0  0  0
    0.9184   -0.3178   30.8231 C   0  0  0  0  0  0  0  0  0  0  0  0
   -0.5277   -1.2180   33.3521 H   0  0  0  0  0  0  0  0  0  0  0  0
   -1.6050   -2.7644   34.6771 H   0  0  0  0  0  0  0  0  0  0  0  0
   -1.6350   -3.9339   33.3373 H   0  0  0  0  0  0  0  0  0  0  0  0
   -0.1093   -4.7240   35.1090 H   0  0  0  0  0  0  0  0  0  0  0  0
    0.8624   -3.2452   34.9348 H   0  0  0  0  0  0  0  0  0  0  0  0
   -0.4704   -4.1081   29.9446 H   0  0  0  0  0  0  0  0  0  0  0  0
    0.9448   -4.3666   28.8846 H   0  0  0  0  0  0  0  0  0  0  0  0
    1.0934   -2.1558   30.9548 H   0  0  0  0  0  0  0  0  0  0  0  0
    2.0509   -2.5020   29.7093 H   0  0  0  0  0  0  0  0  0  0  0  0
    1.9946    0.3028   27.4150 H   0  0  0  0  0  0  0  0  0  0  0  0
    1.1008    2.1985   26.4734 H   0  0  0  0  0  0  0  0  0  0  0  0
   -2.4770    1.8577   28.3866 H   0  0  0  0  0  0  0  0  0  0  0  0
   -1.8684   -0.0126   29.5978 H   0  0  0  0  0  0  0  0  0  0  0  0
    3.1254   -5.2757   30.2203 H   0  0  0  0  0  0  0  0  0  0  0  0
    4.9031   -6.2861   34.6390 H   0  0  0  0  0  0  0  0  0  0  0  0
   -1.2139   -1.6411   27.8735 H   0  0  0  0  0  0  0  0  0  0  0  0
   -0.8793   -3.2122   28.4478 H   0  0  0  0  0  0  0  0  0  0  0  0
    1.9460   -2.8336   27.8850 H   0  0  0  0  0  0  0  0  0  0  0  0
    1.4366   -1.4918   26.9520 H   0  0  0  0  0  0  0  0  0  0  0  0
    2.7606    0.2390   29.1110 H   0  0  0  0  0  0  0  0  0  0  0  0
    3.1494   -1.2107   29.8936 H   0  0  0  0  0  0  0  0  0  0  0  0
    0.6077    0.7384   30.8181 H   0  0  0  0  0  0  0  0  0  0  0  0
    1.2985   -0.5936   31.8190 H   0  0  0  0  0  0  0  0  0  0  0  0
  1  2  2  0
  2  3  2  0
  2  4  1  0
  4  5  1  0
  5  6  1  0
  6  7  1  0
  7  8  2  0
  8  9  1  0
  9 10  1  0
 10 11  1  0
 11 12  1  0
 12 13  2  0
 13 14  1  0
 14 15  2  0
 15 16  1  0
 16 17  2  0
  9 18  2  0
 18 19  1  0
 19 20  1  0
 20 21  2  0
 21 22  1  0
 22 23  2  0
  2 24  1  0
 24 25  1  0
 25 26  1  0
 26 27  1  0
 27 28  1  0
 23  7  1  0
 28 24  1  0
 17 12  1  0
 23 19  1  0
  4 29  1  0
  5 30  1  0
  5 31  1  0
  6 32  1  0
  6 33  1  0
 10 34  1  0
 10 35  1  0
 11 36  1  0
 11 37  1  0
 13 38  1  0
 14 39  1  0
 16 40  1  0
 17 41  1  0
 18 42  1  0
 21 43  1  0
 25 44  1  0
 25 45  1  0
 26 46  1  0
 26 47  1  0
 27 48  1  0
 27 49  1  0
 28 50  1  0
 28 51  1  0
M  END
>  <Energy>  (903) 
897.43824610674767

>  <compound_id>  (903) 
2957

>  <target_id>  (903) 
1

>  <reference_id>  (903) 
70

>  <inspiration_ids>  (903) 
[190, 70]

>  <energy_score>  (903) 
983.3901818400625

>  <distance_score>  (903) 
3.7671365110165405

>  <path>  (903) 
/opt/xchem-fragalysis-2/maxwin/BulkDock/SCRATCH/505736/C2957-P70/C2957-P70.minimised.mol

>  <scratch_subdir>  (903) 
/opt/xchem-fragalysis-2/maxwin/BulkDock/SCRATCH/505736/C2957-P70

>  <fragmenstein_runtime>  (903) 
11.896773338317871

>  <fragmenstein_outcome>  (903) 
too moved

>  <fragmenstein_mode>  (903) 
expansion

>  <fragmenstein_error>  (903) 


$$$$
C2958-P190
     RDKit          3D

 48 52  0  0  0  0  0  0  0  0999 V2000
   -0.5710   -8.6993   29.0948 O   0  0  0  0  0  0  0  0  0  0  0  0
   -0.3164   -7.9259   30.0004 C   0  0  0  0  0  0  0  0  0  0  0  0
    0.8910   -7.2887   30.1469 N   0  0  0  0  0  0  0  0  0  0  0  0
    0.8342   -6.2464   30.9185 C   0  0  0  0  0  0  0  0  0  0  0  0
    1.9045   -6.0096   31.9415 C   0  0  0  0  0  0  0  0  0  0  0  0
    1.6146   -6.6955   33.0722 C   0  0  0  0  0  0  0  0  0  0  0  0
    1.5958   -6.0163   34.2668 N   0  0  0  0  0  0  0  0  0  0  0  0
    1.1783   -6.3993   35.4884 N   0  0  0  0  0  0  0  0  0  0  0  0
    1.1975   -5.2403   36.1541 C   0  0  0  0  0  0  0  0  0  0  0  0
    1.5904   -4.1449   35.4348 N   0  0  0  0  0  0  0  0  0  0  0  0
    1.8135   -4.6675   34.2552 C   0  0  0  0  0  0  0  0  0  0  0  0
    2.1570   -4.0457   33.0082 C   0  0  0  0  0  0  0  0  0  0  0  0
    2.1743   -2.5699   32.8644 C   0  0  0  0  0  0  0  0  0  0  0  0
    1.5960   -2.1656   31.5143 C   0  0  0  0  0  0  0  0  0  0  0  0
    0.3344   -2.8657   31.2183 N   0  0  0  0  0  0  0  0  0  0  0  0
   -1.1428   -2.1978   31.5948 S   0  0  0  0  0  0  0  0  0  0  0  0
   -1.0161   -1.5512   32.8744 O   0  0  0  0  0  0  0  0  0  0  0  0
   -2.0902   -3.2647   31.3739 O   0  0  0  0  0  0  0  0  0  0  0  0
   -1.2773   -1.0863   30.3896 N   0  0  0  0  0  0  0  0  0  0  0  0
   -1.2301   -1.4569   28.9570 C   0  0  0  0  0  0  0  0  0  0  0  0
   -0.9967   -0.1291   28.2503 C   0  0  0  0  0  0  0  0  0  0  0  0
   -0.1462    0.6390   29.2404 C   0  0  0  0  0  0  0  0  0  0  0  0
   -0.7847    0.2839   30.5701 C   0  0  0  0  0  0  0  0  0  0  0  0
    2.3745   -4.7381   31.9295 N   0  0  0  0  0  0  0  0  0  0  0  0
   -0.3334   -5.5274   31.1633 N   0  0  0  0  0  0  0  0  0  0  0  0
   -1.1110   -6.4349   31.7705 C   0  0  0  0  0  0  0  0  0  0  0  0
   -1.4313   -6.4626   33.1451 C   0  0  0  0  0  0  0  0  0  0  0  0
   -1.7000   -7.7588   33.5234 C   0  0  0  0  0  0  0  0  0  0  0  0
   -1.7553   -8.7864   32.1568 S   0  0  0  0  0  0  0  0  0  0  0  0
   -1.1400   -7.6481   31.1518 C   0  0  0  0  0  0  0  0  0  0  0  0
    1.0923   -7.6364   33.1105 H   0  0  0  0  0  0  0  0  0  0  0  0
    0.9152   -5.1888   37.1995 H   0  0  0  0  0  0  0  0  0  0  0  0
    3.2056   -2.2130   32.9577 H   0  0  0  0  0  0  0  0  0  0  0  0
    1.5913   -2.1123   33.6707 H   0  0  0  0  0  0  0  0  0  0  0  0
    2.3043   -2.4101   30.7124 H   0  0  0  0  0  0  0  0  0  0  0  0
    1.4764   -1.0821   31.4733 H   0  0  0  0  0  0  0  0  0  0  0  0
    0.3138   -3.3015   30.2931 H   0  0  0  0  0  0  0  0  0  0  0  0
   -2.1476   -1.9360   28.6203 H   0  0  0  0  0  0  0  0  0  0  0  0
   -0.3880   -2.1227   28.7499 H   0  0  0  0  0  0  0  0  0  0  0  0
   -1.9410    0.3948   28.0791 H   0  0  0  0  0  0  0  0  0  0  0  0
   -0.4982   -0.2453   27.2909 H   0  0  0  0  0  0  0  0  0  0  0  0
    0.8890    0.2788   29.2063 H   0  0  0  0  0  0  0  0  0  0  0  0
   -0.1422    1.7161   29.0516 H   0  0  0  0  0  0  0  0  0  0  0  0
   -1.6536    0.9122   30.7685 H   0  0  0  0  0  0  0  0  0  0  0  0
   -0.0811    0.4075   31.3948 H   0  0  0  0  0  0  0  0  0  0  0  0
   -0.1727   -4.6627   31.6841 H   0  0  0  0  0  0  0  0  0  0  0  0
   -1.3359   -5.6398   33.8436 H   0  0  0  0  0  0  0  0  0  0  0  0
   -1.9107   -8.1383   34.5147 H   0  0  0  0  0  0  0  0  0  0  0  0
  1  2  2  0
  2  3  1  0
  3  4  2  0
  4  5  1  0
  5  6  2  0
  6  7  1  0
  7  8  1  0
  8  9  2  0
  9 10  1  0
 10 11  2  0
 11 12  1  0
 12 13  1  0
 13 14  1  0
 14 15  1  0
 15 16  1  0
 16 17  2  0
 16 18  2  0
 16 19  1  0
 19 20  1  0
 20 21  1  0
 21 22  1  0
 22 23  1  0
 12 24  2  0
  4 25  1  0
 25 26  1  0
 26 27  1  0
 27 28  2  0
 28 29  1  0
 29 30  1  0
 30  2  1  0
 24  5  1  0
 30 26  2  0
 11  7  1  0
 23 19  1  0
  6 31  1  0
  9 32  1  0
 13 33  1  0
 13 34  1  0
 14 35  1  0
 14 36  1  0
 15 37  1  0
 20 38  1  0
 20 39  1  0
 21 40  1  0
 21 41  1  0
 22 42  1  0
 22 43  1  0
 23 44  1  0
 23 45  1  0
 25 46  1  0
 27 47  1  0
 28 48  1  0
M  END
>  <Energy>  (904) 
-92.438238592017086

>  <compound_id>  (904) 
2958

>  <target_id>  (904) 
1

>  <reference_id>  (904) 
190

>  <inspiration_ids>  (904) 
[190, 72]

>  <energy_score>  (904) 
6.368505666892531

>  <distance_score>  (904) 
2.5181379240196433

>  <path>  (904) 
/opt/xchem-fragalysis-2/maxwin/BulkDock/SCRATCH/505736/C2958-P190/C2958-P190.minimised.mol

>  <scratch_subdir>  (904) 
/opt/xchem-fragalysis-2/maxwin/BulkDock/SCRATCH/505736/C2958-P190

>  <fragmenstein_runtime>  (904) 
7.011645555496216

>  <fragmenstein_outcome>  (904) 
too moved

>  <fragmenstein_mode>  (904) 
expansion

>  <fragmenstein_error>  (904) 


$$$$
C2958-P72
     RDKit          3D

 48 52  0  0  0  0  0  0  0  0999 V2000
   -0.8088  -10.9901   30.5953 O   0  0  0  0  0  0  0  0  0  0  0  0
   -1.1077   -9.8572   30.8537 C   0  0  0  0  0  0  0  0  0  0  0  0
   -0.4022   -8.6971   31.0200 N   0  0  0  0  0  0  0  0  0  0  0  0
   -0.9184   -7.7952   31.7915 C   0  0  0  0  0  0  0  0  0  0  0  0
    0.0123   -6.8429   32.4620 C   0  0  0  0  0  0  0  0  0  0  0  0
   -0.0360   -6.9184   33.8053 C   0  0  0  0  0  0  0  0  0  0  0  0
    0.8164   -6.1218   34.5274 N   0  0  0  0  0  0  0  0  0  0  0  0
    1.0207   -6.0182   35.8544 N   0  0  0  0  0  0  0  0  0  0  0  0
    1.9988   -5.1096   35.9139 C   0  0  0  0  0  0  0  0  0  0  0  0
    2.4464   -4.6382   34.7103 N   0  0  0  0  0  0  0  0  0  0  0  0
    1.6713   -5.2807   33.8685 C   0  0  0  0  0  0  0  0  0  0  0  0
    1.6244   -5.2232   32.4285 C   0  0  0  0  0  0  0  0  0  0  0  0
    2.4809   -4.2112   31.7201 C   0  0  0  0  0  0  0  0  0  0  0  0
    2.1357   -2.7920   32.1537 C   0  0  0  0  0  0  0  0  0  0  0  0
    1.0672   -2.2048   31.3156 N   0  0  0  0  0  0  0  0  0  0  0  0
   -0.5118   -2.2995   31.8971 S   0  0  0  0  0  0  0  0  0  0  0  0
   -0.6030   -1.4049   33.0233 O   0  0  0  0  0  0  0  0  0  0  0  0
   -0.9187   -3.6819   31.9841 O   0  0  0  0  0  0  0  0  0  0  0  0
   -1.2793   -1.6103   30.5955 N   0  0  0  0  0  0  0  0  0  0  0  0
   -1.1820   -2.2988   29.2856 C   0  0  0  0  0  0  0  0  0  0  0  0
   -1.2305   -1.1807   28.2560 C   0  0  0  0  0  0  0  0  0  0  0  0
   -0.6160   -0.0047   28.9804 C   0  0  0  0  0  0  0  0  0  0  0  0
   -1.1802   -0.1584   30.3774 C   0  0  0  0  0  0  0  0  0  0  0  0
    0.8610   -6.0308   31.7392 N   0  0  0  0  0  0  0  0  0  0  0  0
   -2.2487   -7.7292   32.1134 N   0  0  0  0  0  0  0  0  0  0  0  0
   -3.0735   -8.6919   31.6613 C   0  0  0  0  0  0  0  0  0  0  0  0
   -4.6145   -8.8540   31.6549 C   0  0  0  0  0  0  0  0  0  0  0  0
   -5.2946  -10.5364   31.4869 C   0  0  0  0  0  0  0  0  0  0  0  0
   -3.6175  -11.4615   29.9585 S   0  0  0  0  0  0  0  0  0  0  0  0
   -2.4441   -9.8149   31.1604 C   0  0  0  0  0  0  0  0  0  0  0  0
   -0.6721   -7.5824   34.3770 H   0  0  0  0  0  0  0  0  0  0  0  0
    2.4034   -4.7841   36.8652 H   0  0  0  0  0  0  0  0  0  0  0  0
    2.3844   -4.3336   30.6354 H   0  0  0  0  0  0  0  0  0  0  0  0
    3.5224   -4.4288   31.9866 H   0  0  0  0  0  0  0  0  0  0  0  0
    3.0238   -2.1664   31.9957 H   0  0  0  0  0  0  0  0  0  0  0  0
    1.8847   -2.6832   33.2119 H   0  0  0  0  0  0  0  0  0  0  0  0
    1.2621   -1.2141   31.1678 H   0  0  0  0  0  0  0  0  0  0  0  0
   -2.0150   -2.9895   29.1849 H   0  0  0  0  0  0  0  0  0  0  0  0
   -0.2462   -2.8572   29.1852 H   0  0  0  0  0  0  0  0  0  0  0  0
   -2.2636   -0.9614   27.9699 H   0  0  0  0  0  0  0  0  0  0  0  0
   -0.6701   -1.4284   27.3590 H   0  0  0  0  0  0  0  0  0  0  0  0
    0.4763   -0.0989   28.9959 H   0  0  0  0  0  0  0  0  0  0  0  0
   -0.8725    0.9557   28.5253 H   0  0  0  0  0  0  0  0  0  0  0  0
   -2.1965    0.2361   30.4274 H   0  0  0  0  0  0  0  0  0  0  0  0
   -0.5651    0.3618   31.1156 H   0  0  0  0  0  0  0  0  0  0  0  0
   -2.5422   -6.8065   32.4053 H   0  0  0  0  0  0  0  0  0  0  0  0
   -5.0002   -8.3088   32.4656 H   0  0  0  0  0  0  0  0  0  0  0  0
   -6.0812  -10.8228   30.7332 H   0  0  0  0  0  0  0  0  0  0  0  0
  1  2  2  0
  2  3  1  0
  3  4  2  0
  4  5  1  0
  5  6  2  0
  6  7  1  0
  7  8  1  0
  8  9  2  0
  9 10  1  0
 10 11  2  0
 11 12  1  0
 12 13  1  0
 13 14  1  0
 14 15  1  0
 15 16  1  0
 16 17  2  0
 16 18  2  0
 16 19  1  0
 19 20  1  0
 20 21  1  0
 21 22  1  0
 22 23  1  0
 12 24  2  0
  4 25  1  0
 25 26  1  0
 26 27  1  0
 27 28  2  0
 28 29  1  0
 29 30  1  0
 30  2  1  0
 24  5  1  0
 30 26  2  0
 11  7  1  0
 23 19  1  0
  6 31  1  0
  9 32  1  0
 13 33  1  0
 13 34  1  0
 14 35  1  0
 14 36  1  0
 15 37  1  0
 20 38  1  0
 20 39  1  0
 21 40  1  0
 21 41  1  0
 22 42  1  0
 22 43  1  0
 23 44  1  0
 23 45  1  0
 25 46  1  0
 27 47  1  0
 28 48  1  0
M  END
>  <Energy>  (905) 
85.027025789023881

>  <compound_id>  (905) 
2958

>  <target_id>  (905) 
1

>  <reference_id>  (905) 
72

>  <inspiration_ids>  (905) 
[190, 72]

>  <energy_score>  (905) 
180.75330842433038

>  <distance_score>  (905) 
1.4499432114390407

>  <path>  (905) 
/opt/xchem-fragalysis-2/maxwin/BulkDock/SCRATCH/505736/C2958-P72/C2958-P72.minimised.mol

>  <scratch_subdir>  (905) 
/opt/xchem-fragalysis-2/maxwin/BulkDock/SCRATCH/505736/C2958-P72

>  <fragmenstein_runtime>  (905) 
8.009742021560669

>  <fragmenstein_outcome>  (905) 
too moved

>  <fragmenstein_mode>  (905) 
expansion

>  <fragmenstein_error>  (905) 


$$$$
C2959-P190
     RDKit          3D

 48 52  0  0  0  0  0  0  0  0999 V2000
    3.6677   -8.0185   36.0430 O   0  0  0  0  0  0  0  0  0  0  0  0
    2.6723   -7.3204   35.9020 C   0  0  0  0  0  0  0  0  0  0  0  0
    1.6551   -7.6687   35.0423 N   0  0  0  0  0  0  0  0  0  0  0  0
    0.5290   -7.0124   35.0904 C   0  0  0  0  0  0  0  0  0  0  0  0
   -0.2268   -7.2140   33.8912 C   0  0  0  0  0  0  0  0  0  0  0  0
   -1.3616   -7.9290   33.5945 C   0  0  0  0  0  0  0  0  0  0  0  0
   -1.4307   -7.9836   32.1851 C   0  0  0  0  0  0  0  0  0  0  0  0
   -2.3116   -8.6364   31.4238 O   0  0  0  0  0  0  0  0  0  0  0  0
   -0.4364   -7.2085   31.6404 C   0  0  0  0  0  0  0  0  0  0  0  0
   -0.0808   -6.8937   30.3564 N   0  0  0  0  0  0  0  0  0  0  0  0
    0.7071   -5.8669   30.2442 C   0  0  0  0  0  0  0  0  0  0  0  0
    1.2650   -5.0506   31.3590 C   0  0  0  0  0  0  0  0  0  0  0  0
    1.8524   -3.7165   31.1185 C   0  0  0  0  0  0  0  0  0  0  0  0
    0.8617   -2.8514   30.4732 N   0  0  0  0  0  0  0  0  0  0  0  0
   -0.5636   -2.4953   31.2944 S   0  0  0  0  0  0  0  0  0  0  0  0
   -0.2355   -2.0960   32.6414 O   0  0  0  0  0  0  0  0  0  0  0  0
   -1.4991   -3.5611   31.0305 O   0  0  0  0  0  0  0  0  0  0  0  0
   -0.9966   -1.1511   30.4026 N   0  0  0  0  0  0  0  0  0  0  0  0
   -1.2472   -1.2939   28.9413 C   0  0  0  0  0  0  0  0  0  0  0  0
   -1.0405    0.1106   28.3996 C   0  0  0  0  0  0  0  0  0  0  0  0
    0.1181    0.6077   29.2365 C   0  0  0  0  0  0  0  0  0  0  0  0
   -0.2225    0.0942   30.6277 C   0  0  0  0  0  0  0  0  0  0  0  0
    1.0509   -5.5517   32.5772 C   0  0  0  0  0  0  0  0  0  0  0  0
    0.1987   -6.6294   32.7225 N   0  0  0  0  0  0  0  0  0  0  0  0
    0.1757   -6.0400   36.0101 N   0  0  0  0  0  0  0  0  0  0  0  0
    1.2481   -5.4082   36.5355 C   0  0  0  0  0  0  0  0  0  0  0  0
    1.2939   -4.1263   37.1280 C   0  0  0  0  0  0  0  0  0  0  0  0
    2.5955   -3.7778   37.4379 C   0  0  0  0  0  0  0  0  0  0  0  0
    3.7213   -4.9986   36.9823 S   0  0  0  0  0  0  0  0  0  0  0  0
    2.4758   -6.0086   36.4576 C   0  0  0  0  0  0  0  0  0  0  0  0
   -1.9921   -8.4343   34.3089 H   0  0  0  0  0  0  0  0  0  0  0  0
   -2.9767   -9.1170   31.9588 H   0  0  0  0  0  0  0  0  0  0  0  0
    1.0231   -5.5482   29.2404 H   0  0  0  0  0  0  0  0  0  0  0  0
    2.2128   -3.2397   32.0365 H   0  0  0  0  0  0  0  0  0  0  0  0
    2.7171   -3.8106   30.4521 H   0  0  0  0  0  0  0  0  0  0  0  0
    0.6146   -3.1860   29.5444 H   0  0  0  0  0  0  0  0  0  0  0  0
   -2.2418   -1.6689   28.7254 H   0  0  0  0  0  0  0  0  0  0  0  0
   -0.5251   -1.9625   28.4677 H   0  0  0  0  0  0  0  0  0  0  0  0
   -1.9175    0.7373   28.5845 H   0  0  0  0  0  0  0  0  0  0  0  0
   -0.8293    0.1252   27.3291 H   0  0  0  0  0  0  0  0  0  0  0  0
    1.0558    0.1596   28.8862 H   0  0  0  0  0  0  0  0  0  0  0  0
    0.2278    1.6954   29.2091 H   0  0  0  0  0  0  0  0  0  0  0  0
   -0.8632    0.8029   31.1627 H   0  0  0  0  0  0  0  0  0  0  0  0
    0.6885   -0.0573   31.2135 H   0  0  0  0  0  0  0  0  0  0  0  0
    1.3940   -5.0513   33.4740 H   0  0  0  0  0  0  0  0  0  0  0  0
   -0.6856   -5.5281   35.8284 H   0  0  0  0  0  0  0  0  0  0  0  0
    0.4460   -3.4755   37.3033 H   0  0  0  0  0  0  0  0  0  0  0  0
    2.9484   -2.8603   37.8904 H   0  0  0  0  0  0  0  0  0  0  0  0
  1  2  2  0
  2  3  1  0
  3  4  2  0
  4  5  1  0
  5  6  2  0
  6  7  1  0
  7  8  1  0
  7  9  2  0
  9 10  1  0
 10 11  2  0
 11 12  1  0
 12 13  1  0
 13 14  1  0
 14 15  1  0
 15 16  2  0
 15 17  2  0
 15 18  1  0
 18 19  1  0
 19 20  1  0
 20 21  1  0
 21 22  1  0
 12 23  2  0
 23 24  1  0
  4 25  1  0
 25 26  1  0
 26 27  1  0
 27 28  2  0
 28 29  1  0
 29 30  1  0
 30  2  1  0
 24  5  1  0
 30 26  2  0
 24  9  1  0
 22 18  1  0
  6 31  1  0
  8 32  1  0
 11 33  1  0
 13 34  1  0
 13 35  1  0
 14 36  1  0
 19 37  1  0
 19 38  1  0
 20 39  1  0
 20 40  1  0
 21 41  1  0
 21 42  1  0
 22 43  1  0
 22 44  1  0
 23 45  1  0
 25 46  1  0
 27 47  1  0
 28 48  1  0
M  END
>  <Energy>  (906) 
-184.67655918318496

>  <compound_id>  (906) 
2959

>  <target_id>  (906) 
1

>  <reference_id>  (906) 
190

>  <inspiration_ids>  (906) 
[190, 78]

>  <energy_score>  (906) 
-79.31239835985048

>  <distance_score>  (906) 
1.0859201665100728

>  <path>  (906) 
/opt/xchem-fragalysis-2/maxwin/BulkDock/SCRATCH/505736/C2959-P190/C2959-P190.minimised.mol

>  <scratch_subdir>  (906) 
/opt/xchem-fragalysis-2/maxwin/BulkDock/SCRATCH/505736/C2959-P190

>  <fragmenstein_runtime>  (906) 
4.242971897125244

>  <fragmenstein_outcome>  (906) 
too moved

>  <fragmenstein_mode>  (906) 
expansion

>  <fragmenstein_error>  (906) 


$$$$
C2959-P78
     RDKit          3D

 48 52  0  0  0  0  0  0  0  0999 V2000
    3.7384   -7.9129   36.1117 O   0  0  0  0  0  0  0  0  0  0  0  0
    2.7309   -7.2332   35.9678 C   0  0  0  0  0  0  0  0  0  0  0  0
    1.7072   -7.6011   35.1248 N   0  0  0  0  0  0  0  0  0  0  0  0
    0.5723   -6.9607   35.1851 C   0  0  0  0  0  0  0  0  0  0  0  0
   -0.1937   -7.1621   33.9929 C   0  0  0  0  0  0  0  0  0  0  0  0
   -1.3658   -7.8193   33.7115 C   0  0  0  0  0  0  0  0  0  0  0  0
   -1.4273   -7.9161   32.3030 C   0  0  0  0  0  0  0  0  0  0  0  0
   -2.3303   -8.5706   31.5684 O   0  0  0  0  0  0  0  0  0  0  0  0
   -0.3970   -7.1984   31.7419 C   0  0  0  0  0  0  0  0  0  0  0  0
   -0.0064   -6.9306   30.4566 N   0  0  0  0  0  0  0  0  0  0  0  0
    0.7953   -5.9158   30.3326 C   0  0  0  0  0  0  0  0  0  0  0  0
    1.3327   -5.0677   31.4299 C   0  0  0  0  0  0  0  0  0  0  0  0
    1.8998   -3.7318   31.1575 C   0  0  0  0  0  0  0  0  0  0  0  0
    0.8878   -2.9019   30.4983 N   0  0  0  0  0  0  0  0  0  0  0  0
   -0.5158   -2.5157   31.3445 S   0  0  0  0  0  0  0  0  0  0  0  0
   -0.1494   -2.0372   32.6552 O   0  0  0  0  0  0  0  0  0  0  0  0
   -1.4497   -3.6012   31.1715 O   0  0  0  0  0  0  0  0  0  0  0  0
   -0.9869   -1.2319   30.3927 N   0  0  0  0  0  0  0  0  0  0  0  0
   -1.3139   -1.4687   28.9627 C   0  0  0  0  0  0  0  0  0  0  0  0
   -1.2493   -0.0810   28.3506 C   0  0  0  0  0  0  0  0  0  0  0  0
   -0.0577    0.5223   29.0669 C   0  0  0  0  0  0  0  0  0  0  0  0
   -0.2191    0.0297   30.4997 C   0  0  0  0  0  0  0  0  0  0  0  0
    1.1103   -5.5434   32.6557 C   0  0  0  0  0  0  0  0  0  0  0  0
    0.2467   -6.6109   32.8150 N   0  0  0  0  0  0  0  0  0  0  0  0
    0.2173   -5.9919   36.1093 N   0  0  0  0  0  0  0  0  0  0  0  0
    1.2894   -5.3348   36.6040 C   0  0  0  0  0  0  0  0  0  0  0  0
    1.3268   -4.0430   37.1752 C   0  0  0  0  0  0  0  0  0  0  0  0
    2.6288   -3.6692   37.4528 C   0  0  0  0  0  0  0  0  0  0  0  0
    3.7644   -4.8798   36.9940 S   0  0  0  0  0  0  0  0  0  0  0  0
    2.5246   -5.9166   36.5095 C   0  0  0  0  0  0  0  0  0  0  0  0
   -2.0181   -8.2814   34.4365 H   0  0  0  0  0  0  0  0  0  0  0  0
   -2.9988   -9.0130   32.1309 H   0  0  0  0  0  0  0  0  0  0  0  0
    1.1473   -5.6334   29.3295 H   0  0  0  0  0  0  0  0  0  0  0  0
    2.2583   -3.2290   32.0622 H   0  0  0  0  0  0  0  0  0  0  0  0
    2.7614   -3.8266   30.4875 H   0  0  0  0  0  0  0  0  0  0  0  0
    0.6093   -3.2817   29.5955 H   0  0  0  0  0  0  0  0  0  0  0  0
   -2.2866   -1.9313   28.8419 H   0  0  0  0  0  0  0  0  0  0  0  0
   -0.5705   -2.1043   28.4746 H   0  0  0  0  0  0  0  0  0  0  0  0
   -2.1517    0.4906   28.5886 H   0  0  0  0  0  0  0  0  0  0  0  0
   -1.1276   -0.1031   27.2646 H   0  0  0  0  0  0  0  0  0  0  0  0
    0.8736    0.1320   28.6385 H   0  0  0  0  0  0  0  0  0  0  0  0
   -0.0294    1.6136   29.0019 H   0  0  0  0  0  0  0  0  0  0  0  0
   -0.8009    0.7365   31.0979 H   0  0  0  0  0  0  0  0  0  0  0  0
    0.7595   -0.0977   30.9713 H   0  0  0  0  0  0  0  0  0  0  0  0
    1.4417   -5.0223   33.5449 H   0  0  0  0  0  0  0  0  0  0  0  0
   -0.6511   -5.4925   35.9314 H   0  0  0  0  0  0  0  0  0  0  0  0
    0.4728   -3.4017   37.3560 H   0  0  0  0  0  0  0  0  0  0  0  0
    2.9762   -2.7386   37.8820 H   0  0  0  0  0  0  0  0  0  0  0  0
  1  2  2  0
  2  3  1  0
  3  4  2  0
  4  5  1  0
  5  6  2  0
  6  7  1  0
  7  8  1  0
  7  9  2  0
  9 10  1  0
 10 11  2  0
 11 12  1  0
 12 13  1  0
 13 14  1  0
 14 15  1  0
 15 16  2  0
 15 17  2  0
 15 18  1  0
 18 19  1  0
 19 20  1  0
 20 21  1  0
 21 22  1  0
 12 23  2  0
 23 24  1  0
  4 25  1  0
 25 26  1  0
 26 27  1  0
 27 28  2  0
 28 29  1  0
 29 30  1  0
 30  2  1  0
 24  5  1  0
 30 26  2  0
 24  9  1  0
 22 18  1  0
  6 31  1  0
  8 32  1  0
 11 33  1  0
 13 34  1  0
 13 35  1  0
 14 36  1  0
 19 37  1  0
 19 38  1  0
 20 39  1  0
 20 40  1  0
 21 41  1  0
 21 42  1  0
 22 43  1  0
 22 44  1  0
 23 45  1  0
 25 46  1  0
 27 47  1  0
 28 48  1  0
M  END
>  <Energy>  (907) 
-183.55549200213221

>  <compound_id>  (907) 
2959

>  <target_id>  (907) 
1

>  <reference_id>  (907) 
78

>  <inspiration_ids>  (907) 
[190, 78]

>  <energy_score>  (907) 
-78.19133117879855

>  <distance_score>  (907) 
1.073208360228136

>  <path>  (907) 
/opt/xchem-fragalysis-2/maxwin/BulkDock/SCRATCH/505736/C2959-P78/C2959-P78.minimised.mol

>  <scratch_subdir>  (907) 
/opt/xchem-fragalysis-2/maxwin/BulkDock/SCRATCH/505736/C2959-P78

>  <fragmenstein_runtime>  (907) 
4.179211616516113

>  <fragmenstein_outcome>  (907) 
too moved

>  <fragmenstein_mode>  (907) 
expansion

>  <fragmenstein_error>  (907) 


$$$$
C2659-P190
     RDKit          3D

 61 64  0  0  0  0  0  0  0  0999 V2000
    0.4676   -6.1948   37.0932 C   0  0  0  0  0  0  0  0  0  0  0  0
   -0.0449   -6.1495   35.6868 C   0  0  0  0  0  0  0  0  0  0  0  0
   -0.4724   -7.3043   35.0676 C   0  0  0  0  0  0  0  0  0  0  0  0
   -0.9152   -7.1586   33.7775 C   0  0  0  0  0  0  0  0  0  0  0  0
   -1.3547   -8.2334   33.0629 O   0  0  0  0  0  0  0  0  0  0  0  0
   -0.9724   -5.9939   33.1277 N   0  0  0  0  0  0  0  0  0  0  0  0
   -0.6054   -4.9049   33.8334 C   0  0  0  0  0  0  0  0  0  0  0  0
   -0.7169   -3.5390   33.1433 C   0  0  0  0  0  0  0  0  0  0  0  0
    0.5503   -3.4497   32.2514 C   0  0  0  0  0  0  0  0  0  0  0  0
    0.4321   -2.5731   31.0554 N   0  0  0  0  0  0  0  0  0  0  0  0
   -0.0917   -1.0047   31.3216 S   0  0  0  0  0  0  0  0  0  0  0  0
    0.8204   -0.4055   32.2651 O   0  0  0  0  0  0  0  0  0  0  0  0
   -1.5222   -0.9772   31.4705 O   0  0  0  0  0  0  0  0  0  0  0  0
    0.2849   -0.4331   29.7917 N   0  0  0  0  0  0  0  0  0  0  0  0
   -0.6115   -0.8641   28.6757 C   0  0  0  0  0  0  0  0  0  0  0  0
   -1.1069    0.4324   28.0556 C   0  0  0  0  0  0  0  0  0  0  0  0
    0.0563    1.3750   28.2709 C   0  0  0  0  0  0  0  0  0  0  0  0
    0.4631    1.0387   29.6952 C   0  0  0  0  0  0  0  0  0  0  0  0
   -0.7820   -2.3650   34.0792 N   0  0  0  0  0  0  0  0  0  0  0  0
   -2.0367   -2.2360   34.8250 C   0  0  0  0  0  0  0  0  0  0  0  0
   -1.8197   -0.8359   36.0522 C   0  0  0  0  0  0  0  0  0  0  0  0
   -3.2498    0.1292   37.0476 N   0  0  0  0  0  0  0  0  0  0  0  0
   -2.9728    1.2299   38.1182 C   0  0  0  0  0  0  0  0  0  0  0  0
   -1.9981    1.7606   38.4558 O   0  0  0  0  0  0  0  0  0  0  0  0
   -4.3956    1.5903   38.6283 C   0  0  0  0  0  0  0  0  0  0  0  0
   -5.1580    0.2325   39.5687 S   0  0  0  0  0  0  0  0  0  0  0  0
   -4.3412    3.0525   39.6512 Cl  0  0  0  0  0  0  0  0  0  0  0  0
   -2.5554   -0.4442   36.1508 C   0  0  0  0  0  0  0  0  0  0  0  0
   -3.6965   -0.6391   34.7878 C   0  0  0  0  0  0  0  0  0  0  0  0
   -4.9176   -0.1107   34.3477 C   0  0  0  0  0  0  0  0  0  0  0  0
   -5.3716   -0.8923   33.2989 C   0  0  0  0  0  0  0  0  0  0  0  0
   -4.2847   -2.1916   32.9101 S   0  0  0  0  0  0  0  0  0  0  0  0
   -3.2340   -1.7157   34.1097 C   0  0  0  0  0  0  0  0  0  0  0  0
   -0.0915   -4.9448   35.0833 N   0  0  0  0  0  0  0  0  0  0  0  0
   -0.3470   -6.4280   37.7847 H   0  0  0  0  0  0  0  0  0  0  0  0
    1.2511   -6.9530   37.1908 H   0  0  0  0  0  0  0  0  0  0  0  0
    0.8948   -5.2290   37.3821 H   0  0  0  0  0  0  0  0  0  0  0  0
   -0.4490   -8.2586   35.5744 H   0  0  0  0  0  0  0  0  0  0  0  0
   -1.4467   -8.9781   33.6864 H   0  0  0  0  0  0  0  0  0  0  0  0
   -1.5990   -3.5499   32.4960 H   0  0  0  0  0  0  0  0  0  0  0  0
    1.4260   -3.1396   32.8370 H   0  0  0  0  0  0  0  0  0  0  0  0
    0.8089   -4.4378   31.8464 H   0  0  0  0  0  0  0  0  0  0  0  0
    1.3378   -2.4813   30.5955 H   0  0  0  0  0  0  0  0  0  0  0  0
   -1.4429   -1.4997   28.9905 H   0  0  0  0  0  0  0  0  0  0  0  0
    0.0000   -1.4328   27.9708 H   0  0  0  0  0  0  0  0  0  0  0  0
   -1.3943    0.3237   27.0084 H   0  0  0  0  0  0  0  0  0  0  0  0
   -1.9707    0.8066   28.6119 H   0  0  0  0  0  0  0  0  0  0  0  0
    0.8707    1.1463   27.5740 H   0  0  0  0  0  0  0  0  0  0  0  0
   -0.2193    2.4263   28.1518 H   0  0  0  0  0  0  0  0  0  0  0  0
   -0.1873    1.5585   30.4067 H   0  0  0  0  0  0  0  0  0  0  0  0
    1.5030    1.3146   29.8905 H   0  0  0  0  0  0  0  0  0  0  0  0
   -0.0259   -2.5074   34.7518 H   0  0  0  0  0  0  0  0  0  0  0  0
   -2.2431   -3.0957   35.4700 H   0  0  0  0  0  0  0  0  0  0  0  0
   -0.8535   -0.1559   35.6988 H   0  0  0  0  0  0  0  0  0  0  0  0
   -1.2089   -1.4104   36.9226 H   0  0  0  0  0  0  0  0  0  0  0  0
   -5.0266    1.8326   37.7674 H   0  0  0  0  0  0  0  0  0  0  0  0
   -4.2436    0.2326   40.5492 H   0  0  0  0  0  0  0  0  0  0  0  0
   -3.3878   -1.3363   36.5605 H   0  0  0  0  0  0  0  0  0  0  0  0
   -2.5810    0.6962   35.6431 H   0  0  0  0  0  0  0  0  0  0  0  0
   -5.4623    0.7229   34.7710 H   0  0  0  0  0  0  0  0  0  0  0  0
   -6.2943   -0.7833   32.7447 H   0  0  0  0  0  0  0  0  0  0  0  0
  1  2  1  0
  2  3  2  0
  3  4  1  0
  4  5  1  0
  4  6  2  0
  6  7  1  0
  7  8  1  0
  8  9  1  0
  9 10  1  0
 10 11  1  0
 11 12  2  0
 11 13  2  0
 11 14  1  0
 14 15  1  0
 15 16  1  0
 16 17  1  0
 17 18  1  0
  8 19  1  0
 19 20  1  0
 20 21  1  0
 21 22  1  0
 22 23  1  0
 23 24  2  0
 23 25  1  0
 25 26  1  0
 25 27  1  0
 22 28  1  0
 28 29  1  0
 29 30  1  0
 30 31  2  0
 31 32  1  0
 32 33  1  0
  7 34  2  0
 34  2  1  0
 18 14  1  0
 33 20  1  0
 33 29  2  0
  1 35  1  0
  1 36  1  0
  1 37  1  0
  3 38  1  0
  5 39  1  0
  8 40  1  0
  9 41  1  0
  9 42  1  0
 10 43  1  0
 15 44  1  0
 15 45  1  0
 16 46  1  0
 16 47  1  0
 17 48  1  0
 17 49  1  0
 18 50  1  0
 18 51  1  0
 19 52  1  0
 20 53  1  0
 21 54  1  0
 21 55  1  0
 25 56  1  0
 26 57  1  0
 28 58  1  0
 28 59  1  0
 30 60  1  0
 31 61  1  0
M  END
>  <Energy>  (908) 
697.04953033292304

>  <compound_id>  (908) 
2659

>  <target_id>  (908) 
1

>  <reference_id>  (908) 
190

>  <inspiration_ids>  (908) 
[190, 121]

>  <energy_score>  (908) 
713.0728771247241

>  <distance_score>  (908) 
2.806184218896095

>  <path>  (908) 
/opt/xchem-fragalysis-2/maxwin/BulkDock/SCRATCH/505736/C2659-P190/C2659-P190.minimised.mol

>  <scratch_subdir>  (908) 
/opt/xchem-fragalysis-2/maxwin/BulkDock/SCRATCH/505736/C2659-P190

>  <fragmenstein_runtime>  (908) 
12.125713586807251

>  <fragmenstein_outcome>  (908) 
too moved

>  <fragmenstein_mode>  (908) 
expansion

>  <fragmenstein_error>  (908) 


$$$$
C2659-P121
     RDKit          3D

 61 64  0  0  0  0  0  0  0  0999 V2000
   -1.3753   -7.9363   35.3941 C   0  0  0  0  0  0  0  0  0  0  0  0
   -1.0501   -7.2679   34.1192 C   0  0  0  0  0  0  0  0  0  0  0  0
   -1.3334   -7.8645   32.9179 C   0  0  0  0  0  0  0  0  0  0  0  0
   -0.9650   -7.1400   31.8289 C   0  0  0  0  0  0  0  0  0  0  0  0
   -1.1066   -7.6842   30.5905 O   0  0  0  0  0  0  0  0  0  0  0  0
   -0.4754   -5.9029   31.8674 N   0  0  0  0  0  0  0  0  0  0  0  0
   -0.2861   -5.3874   33.1037 C   0  0  0  0  0  0  0  0  0  0  0  0
    0.0725   -3.9165   33.2003 C   0  0  0  0  0  0  0  0  0  0  0  0
    1.4930   -3.7293   32.6161 C   0  0  0  0  0  0  0  0  0  0  0  0
    1.5869   -2.4407   31.8632 N   0  0  0  0  0  0  0  0  0  0  0  0
    0.8905   -2.5014   30.3296 S   0  0  0  0  0  0  0  0  0  0  0  0
   -0.5337   -2.3552   30.4803 O   0  0  0  0  0  0  0  0  0  0  0  0
    1.4641   -3.6123   29.6128 O   0  0  0  0  0  0  0  0  0  0  0  0
    1.4792   -1.0627   29.6989 N   0  0  0  0  0  0  0  0  0  0  0  0
    1.1724   -0.8919   28.2464 C   0  0  0  0  0  0  0  0  0  0  0  0
    0.9177    0.5994   28.0748 C   0  0  0  0  0  0  0  0  0  0  0  0
    0.2740    0.9797   29.3870 C   0  0  0  0  0  0  0  0  0  0  0  0
    1.1008    0.1964   30.3876 C   0  0  0  0  0  0  0  0  0  0  0  0
   -0.0129   -3.2533   34.5611 N   0  0  0  0  0  0  0  0  0  0  0  0
   -1.3071   -2.6013   34.8879 C   0  0  0  0  0  0  0  0  0  0  0  0
   -1.0162   -1.1544   36.1496 C   0  0  0  0  0  0  0  0  0  0  0  0
   -1.6646   -1.1712   37.2743 N   0  0  0  0  0  0  0  0  0  0  0  0
   -1.4066   -0.6222   38.7495 C   0  0  0  0  0  0  0  0  0  0  0  0
   -0.5818    0.0502   39.1987 O   0  0  0  0  0  0  0  0  0  0  0  0
   -2.6215   -1.0901   39.5848 C   0  0  0  0  0  0  0  0  0  0  0  0
   -4.1164   -0.1192   39.1756 S   0  0  0  0  0  0  0  0  0  0  0  0
   -2.9536   -2.8160   39.3621 Cl  0  0  0  0  0  0  0  0  0  0  0  0
   -0.5965   -0.5850   35.7241 C   0  0  0  0  0  0  0  0  0  0  0  0
   -1.3215   -0.4252   34.1515 C   0  0  0  0  0  0  0  0  0  0  0  0
   -1.6110    0.5521   33.1986 C   0  0  0  0  0  0  0  0  0  0  0  0
   -2.3226   -0.0514   32.1712 C   0  0  0  0  0  0  0  0  0  0  0  0
   -2.7788   -1.6944   32.5315 S   0  0  0  0  0  0  0  0  0  0  0  0
   -1.7522   -1.6703   33.8253 C   0  0  0  0  0  0  0  0  0  0  0  0
   -0.4885   -6.0525   34.2468 N   0  0  0  0  0  0  0  0  0  0  0  0
   -1.9925   -7.2773   35.9968 H   0  0  0  0  0  0  0  0  0  0  0  0
   -1.8856   -8.8936   35.2644 H   0  0  0  0  0  0  0  0  0  0  0  0
   -0.4294   -8.0803   35.9009 H   0  0  0  0  0  0  0  0  0  0  0  0
   -1.7886   -8.8378   32.8321 H   0  0  0  0  0  0  0  0  0  0  0  0
   -0.4039   -7.2048   30.1011 H   0  0  0  0  0  0  0  0  0  0  0  0
   -0.6417   -3.4454   32.5370 H   0  0  0  0  0  0  0  0  0  0  0  0
    2.2345   -3.6908   33.4246 H   0  0  0  0  0  0  0  0  0  0  0  0
    1.8172   -4.5539   31.9706 H   0  0  0  0  0  0  0  0  0  0  0  0
    1.1521   -1.6985   32.4084 H   0  0  0  0  0  0  0  0  0  0  0  0
    0.2721   -1.4506   27.9714 H   0  0  0  0  0  0  0  0  0  0  0  0
    2.0120   -1.2343   27.6355 H   0  0  0  0  0  0  0  0  0  0  0  0
    1.8658    1.1346   27.9442 H   0  0  0  0  0  0  0  0  0  0  0  0
    0.2732    0.8269   27.2238 H   0  0  0  0  0  0  0  0  0  0  0  0
    0.2961    2.0561   29.5768 H   0  0  0  0  0  0  0  0  0  0  0  0
   -0.7701    0.6461   29.4062 H   0  0  0  0  0  0  0  0  0  0  0  0
    0.5504    0.0428   31.3155 H   0  0  0  0  0  0  0  0  0  0  0  0
    2.0235    0.7332   30.6364 H   0  0  0  0  0  0  0  0  0  0  0  0
    0.1034   -4.0228   35.2307 H   0  0  0  0  0  0  0  0  0  0  0  0
   -2.0601   -3.2460   35.3389 H   0  0  0  0  0  0  0  0  0  0  0  0
   -0.3917   -2.0457   36.7261 H   0  0  0  0  0  0  0  0  0  0  0  0
   -2.2611   -1.1440   35.9656 H   0  0  0  0  0  0  0  0  0  0  0  0
   -2.3875   -0.9431   40.6435 H   0  0  0  0  0  0  0  0  0  0  0  0
   -4.9252   -0.7801   40.0145 H   0  0  0  0  0  0  0  0  0  0  0  0
   -0.5336    0.6019   35.9586 H   0  0  0  0  0  0  0  0  0  0  0  0
    0.6310   -0.7112   35.6686 H   0  0  0  0  0  0  0  0  0  0  0  0
   -1.3153    1.5918   33.2245 H   0  0  0  0  0  0  0  0  0  0  0  0
   -2.6414    0.3700   31.2314 H   0  0  0  0  0  0  0  0  0  0  0  0
  1  2  1  0
  2  3  2  0
  3  4  1  0
  4  5  1  0
  4  6  2  0
  6  7  1  0
  7  8  1  0
  8  9  1  0
  9 10  1  0
 10 11  1  0
 11 12  2  0
 11 13  2  0
 11 14  1  0
 14 15  1  0
 15 16  1  0
 16 17  1  0
 17 18  1  0
  8 19  1  0
 19 20  1  0
 20 21  1  0
 21 22  1  0
 22 23  1  0
 23 24  2  0
 23 25  1  0
 25 26  1  0
 25 27  1  0
 22 28  1  0
 28 29  1  0
 29 30  1  0
 30 31  2  0
 31 32  1  0
 32 33  1  0
  7 34  2  0
 34  2  1  0
 18 14  1  0
 33 20  1  0
 33 29  2  0
  1 35  1  0
  1 36  1  0
  1 37  1  0
  3 38  1  0
  5 39  1  0
  8 40  1  0
  9 41  1  0
  9 42  1  0
 10 43  1  0
 15 44  1  0
 15 45  1  0
 16 46  1  0
 16 47  1  0
 17 48  1  0
 17 49  1  0
 18 50  1  0
 18 51  1  0
 19 52  1  0
 20 53  1  0
 21 54  1  0
 21 55  1  0
 25 56  1  0
 26 57  1  0
 28 58  1  0
 28 59  1  0
 30 60  1  0
 31 61  1  0
M  END
>  <Energy>  (909) 
697.90336296033547

>  <compound_id>  (909) 
2659

>  <target_id>  (909) 
1

>  <reference_id>  (909) 
121

>  <inspiration_ids>  (909) 
[190, 121]

>  <energy_score>  (909) 
713.9267097521191

>  <distance_score>  (909) 
3.5670861643517546

>  <path>  (909) 
/opt/xchem-fragalysis-2/maxwin/BulkDock/SCRATCH/505736/C2659-P121/C2659-P121.minimised.mol

>  <scratch_subdir>  (909) 
/opt/xchem-fragalysis-2/maxwin/BulkDock/SCRATCH/505736/C2659-P121

>  <fragmenstein_runtime>  (909) 
12.782333612442017

>  <fragmenstein_outcome>  (909) 
too moved

>  <fragmenstein_mode>  (909) 
expansion

>  <fragmenstein_error>  (909) 


$$$$
C2966-P190
     RDKit          3D

 42 43  0  0  0  0  0  0  0  0999 V2000
   -0.3191   -6.8481   35.8093 C   0  0  0  0  0  0  0  0  0  0  0  0
   -0.2439   -6.9580   34.3198 C   0  0  0  0  0  0  0  0  0  0  0  0
   -1.1618   -7.7073   33.6167 C   0  0  0  0  0  0  0  0  0  0  0  0
   -1.0045   -7.7299   32.2534 C   0  0  0  0  0  0  0  0  0  0  0  0
   -1.8441   -8.4542   31.4521 O   0  0  0  0  0  0  0  0  0  0  0  0
   -0.0493   -7.0561   31.6040 N   0  0  0  0  0  0  0  0  0  0  0  0
    0.7659   -6.3076   32.3700 C   0  0  0  0  0  0  0  0  0  0  0  0
    1.7980   -5.4426   31.7074 C   0  0  0  0  0  0  0  0  0  0  0  0
    1.4654   -3.9541   31.8025 C   0  0  0  0  0  0  0  0  0  0  0  0
    0.3417   -3.5026   30.9523 N   0  0  0  0  0  0  0  0  0  0  0  0
    0.0570   -4.2862   29.7518 C   0  0  0  0  0  0  0  0  0  0  0  0
   -0.9380   -2.6785   31.6485 S   0  0  0  0  0  0  0  0  0  0  0  0
   -0.5637   -2.2129   32.9630 O   0  0  0  0  0  0  0  0  0  0  0  0
   -2.1309   -3.4698   31.4420 O   0  0  0  0  0  0  0  0  0  0  0  0
   -0.9989   -1.3373   30.6691 N   0  0  0  0  0  0  0  0  0  0  0  0
   -0.0928   -0.1961   30.9259 C   0  0  0  0  0  0  0  0  0  0  0  0
   -0.0239    0.5680   29.5974 C   0  0  0  0  0  0  0  0  0  0  0  0
   -1.2617    0.0805   28.8534 C   0  0  0  0  0  0  0  0  0  0  0  0
   -1.2388    0.3952   27.4374 N   0  0  0  0  0  0  0  0  0  0  0  0
   -1.2363   -1.4055   29.2191 C   0  0  0  0  0  0  0  0  0  0  0  0
    0.7364   -6.2712   33.7103 N   0  0  0  0  0  0  0  0  0  0  0  0
    0.5721   -6.3545   36.2106 H   0  0  0  0  0  0  0  0  0  0  0  0
   -1.1939   -6.2586   36.0964 H   0  0  0  0  0  0  0  0  0  0  0  0
   -0.3834   -7.8425   36.2609 H   0  0  0  0  0  0  0  0  0  0  0  0
   -1.9439   -8.2503   34.1238 H   0  0  0  0  0  0  0  0  0  0  0  0
   -2.5125   -8.8908   32.0121 H   0  0  0  0  0  0  0  0  0  0  0  0
    1.9678   -5.7612   30.6744 H   0  0  0  0  0  0  0  0  0  0  0  0
    2.7447   -5.6051   32.2351 H   0  0  0  0  0  0  0  0  0  0  0  0
    1.3109   -3.6832   32.8515 H   0  0  0  0  0  0  0  0  0  0  0  0
    2.3446   -3.3851   31.4737 H   0  0  0  0  0  0  0  0  0  0  0  0
   -0.2054   -5.3170   29.9702 H   0  0  0  0  0  0  0  0  0  0  0  0
    0.9307   -4.2695   29.0924 H   0  0  0  0  0  0  0  0  0  0  0  0
   -0.7783   -3.8968   29.1703 H   0  0  0  0  0  0  0  0  0  0  0  0
   -0.5269    0.4352   31.7080 H   0  0  0  0  0  0  0  0  0  0  0  0
    0.9059   -0.5210   31.2325 H   0  0  0  0  0  0  0  0  0  0  0  0
    0.8935    0.2929   29.0610 H   0  0  0  0  0  0  0  0  0  0  0  0
   -0.0116    1.6523   29.7459 H   0  0  0  0  0  0  0  0  0  0  0  0
   -2.1359    0.5499   29.3150 H   0  0  0  0  0  0  0  0  0  0  0  0
   -1.7679    1.2512   27.2680 H   0  0  0  0  0  0  0  0  0  0  0  0
   -1.7060   -0.3384   26.8914 H   0  0  0  0  0  0  0  0  0  0  0  0
   -2.1568   -1.9192   28.9586 H   0  0  0  0  0  0  0  0  0  0  0  0
   -0.3949   -1.8800   28.7040 H   0  0  0  0  0  0  0  0  0  0  0  0
  1  2  1  0
  2  3  2  0
  3  4  1  0
  4  5  1  0
  4  6  2  0
  6  7  1  0
  7  8  1  0
  8  9  1  0
  9 10  1  0
 10 11  1  0
 10 12  1  0
 12 13  2  0
 12 14  2  0
 12 15  1  0
 15 16  1  0
 16 17  1  0
 17 18  1  0
 18 19  1  0
 18 20  1  0
  7 21  2  0
 21  2  1  0
 20 15  1  0
  1 22  1  0
  1 23  1  0
  1 24  1  0
  3 25  1  0
  5 26  1  0
  8 27  1  0
  8 28  1  0
  9 29  1  0
  9 30  1  0
 11 31  1  0
 11 32  1  0
 11 33  1  0
 16 34  1  0
 16 35  1  0
 17 36  1  0
 17 37  1  0
 18 38  1  0
 19 39  1  0
 19 40  1  0
 20 41  1  0
 20 42  1  0
M  END
>  <Energy>  (910) 
-169.15075372084098

>  <compound_id>  (910) 
2966

>  <target_id>  (910) 
1

>  <reference_id>  (910) 
190

>  <inspiration_ids>  (910) 
[190, 141]

>  <energy_score>  (910) 
-52.272536072027535

>  <distance_score>  (910) 
1.046584892880266

>  <path>  (910) 
/opt/xchem-fragalysis-2/maxwin/BulkDock/SCRATCH/505736/C2966-P190/C2966-P190.minimised.mol

>  <scratch_subdir>  (910) 
/opt/xchem-fragalysis-2/maxwin/BulkDock/SCRATCH/505736/C2966-P190

>  <fragmenstein_runtime>  (910) 
2.7695040702819824

>  <fragmenstein_outcome>  (910) 
too moved

>  <fragmenstein_mode>  (910) 
expansion

>  <fragmenstein_error>  (910) 


$$$$
C2966-P141
     RDKit          3D

 42 43  0  0  0  0  0  0  0  0999 V2000
   -0.3986   -6.7505   35.8549 C   0  0  0  0  0  0  0  0  0  0  0  0
   -0.3152   -6.8733   34.3672 C   0  0  0  0  0  0  0  0  0  0  0  0
   -1.2346   -7.6209   33.6648 C   0  0  0  0  0  0  0  0  0  0  0  0
   -1.0565   -7.6717   32.3051 C   0  0  0  0  0  0  0  0  0  0  0  0
   -1.8864   -8.4091   31.5070 O   0  0  0  0  0  0  0  0  0  0  0  0
   -0.0836   -7.0223   31.6564 N   0  0  0  0  0  0  0  0  0  0  0  0
    0.7227   -6.2629   32.4201 C   0  0  0  0  0  0  0  0  0  0  0  0
    1.7584   -5.4033   31.7576 C   0  0  0  0  0  0  0  0  0  0  0  0
    1.4262   -3.9147   31.8359 C   0  0  0  0  0  0  0  0  0  0  0  0
    0.3334   -3.4490   30.9479 N   0  0  0  0  0  0  0  0  0  0  0  0
    0.0281   -4.2758   29.7827 C   0  0  0  0  0  0  0  0  0  0  0  0
   -0.9476   -2.6077   31.6309 S   0  0  0  0  0  0  0  0  0  0  0  0
   -0.5348   -2.0568   32.9007 O   0  0  0  0  0  0  0  0  0  0  0  0
   -2.1282   -3.4339   31.5130 O   0  0  0  0  0  0  0  0  0  0  0  0
   -1.0578   -1.3279   30.5799 N   0  0  0  0  0  0  0  0  0  0  0  0
   -0.0743   -0.2265   30.6369 C   0  0  0  0  0  0  0  0  0  0  0  0
   -0.1191    0.4176   29.2432 C   0  0  0  0  0  0  0  0  0  0  0  0
   -1.4951    0.0078   28.7280 C   0  0  0  0  0  0  0  0  0  0  0  0
   -1.7215    0.2180   27.3131 N   0  0  0  0  0  0  0  0  0  0  0  0
   -1.5352   -1.4498   29.1959 C   0  0  0  0  0  0  0  0  0  0  0  0
    0.6787   -6.2055   33.7587 N   0  0  0  0  0  0  0  0  0  0  0  0
    0.4819   -6.2375   36.2552 H   0  0  0  0  0  0  0  0  0  0  0  0
   -1.2844   -6.1736   36.1339 H   0  0  0  0  0  0  0  0  0  0  0  0
   -0.4471   -7.7416   36.3154 H   0  0  0  0  0  0  0  0  0  0  0  0
   -2.0294   -8.1467   34.1703 H   0  0  0  0  0  0  0  0  0  0  0  0
   -2.5618   -8.8382   32.0675 H   0  0  0  0  0  0  0  0  0  0  0  0
    1.9428   -5.7317   30.7305 H   0  0  0  0  0  0  0  0  0  0  0  0
    2.6959   -5.5565   32.3036 H   0  0  0  0  0  0  0  0  0  0  0  0
    1.2410   -3.6411   32.8794 H   0  0  0  0  0  0  0  0  0  0  0  0
    2.3184   -3.3507   31.5343 H   0  0  0  0  0  0  0  0  0  0  0  0
   -0.2197   -5.3004   30.0385 H   0  0  0  0  0  0  0  0  0  0  0  0
    0.8862   -4.2717   29.1030 H   0  0  0  0  0  0  0  0  0  0  0  0
   -0.8262   -3.9191   29.2112 H   0  0  0  0  0  0  0  0  0  0  0  0
   -0.3878    0.4919   31.4013 H   0  0  0  0  0  0  0  0  0  0  0  0
    0.9357   -0.5800   30.8632 H   0  0  0  0  0  0  0  0  0  0  0  0
    0.6769    0.0009   28.6128 H   0  0  0  0  0  0  0  0  0  0  0  0
    0.0176    1.5024   29.2869 H   0  0  0  0  0  0  0  0  0  0  0  0
   -2.2437    0.5894   29.2785 H   0  0  0  0  0  0  0  0  0  0  0  0
   -1.2808    1.0737   26.9896 H   0  0  0  0  0  0  0  0  0  0  0  0
   -1.3846   -0.5605   26.7380 H   0  0  0  0  0  0  0  0  0  0  0  0
   -2.5229   -1.8871   29.1302 H   0  0  0  0  0  0  0  0  0  0  0  0
   -0.8375   -2.0259   28.5829 H   0  0  0  0  0  0  0  0  0  0  0  0
  1  2  1  0
  2  3  2  0
  3  4  1  0
  4  5  1  0
  4  6  2  0
  6  7  1  0
  7  8  1  0
  8  9  1  0
  9 10  1  0
 10 11  1  0
 10 12  1  0
 12 13  2  0
 12 14  2  0
 12 15  1  0
 15 16  1  0
 16 17  1  0
 17 18  1  0
 18 19  1  0
 18 20  1  0
  7 21  2  0
 21  2  1  0
 20 15  1  0
  1 22  1  0
  1 23  1  0
  1 24  1  0
  3 25  1  0
  5 26  1  0
  8 27  1  0
  8 28  1  0
  9 29  1  0
  9 30  1  0
 11 31  1  0
 11 32  1  0
 11 33  1  0
 16 34  1  0
 16 35  1  0
 17 36  1  0
 17 37  1  0
 18 38  1  0
 19 39  1  0
 19 40  1  0
 20 41  1  0
 20 42  1  0
M  END
>  <Energy>  (911) 
-168.53730401316349

>  <compound_id>  (911) 
2966

>  <target_id>  (911) 
1

>  <reference_id>  (911) 
141

>  <inspiration_ids>  (911) 
[190, 141]

>  <energy_score>  (911) 
-51.6590863643492

>  <distance_score>  (911) 
0.9841296221275859

>  <path>  (911) 
/opt/xchem-fragalysis-2/maxwin/BulkDock/SCRATCH/505736/C2966-P141/C2966-P141.minimised.mol

>  <scratch_subdir>  (911) 
/opt/xchem-fragalysis-2/maxwin/BulkDock/SCRATCH/505736/C2966-P141

>  <fragmenstein_runtime>  (911) 
2.432995080947876

>  <fragmenstein_outcome>  (911) 
acceptable

>  <fragmenstein_mode>  (911) 
expansion

>  <fragmenstein_error>  (911) 


$$$$
C2966-P190
     RDKit          3D

 42 43  0  0  0  0  0  0  0  0999 V2000
    0.0263   -7.0704   35.4223 C   0  0  0  0  0  0  0  0  0  0  0  0
    0.0991   -7.1168   33.9250 C   0  0  0  0  0  0  0  0  0  0  0  0
   -0.8184   -7.8457   33.2055 C   0  0  0  0  0  0  0  0  0  0  0  0
   -0.6546   -7.8027   31.8509 C   0  0  0  0  0  0  0  0  0  0  0  0
   -1.3317   -8.6477   31.0392 O   0  0  0  0  0  0  0  0  0  0  0  0
    0.2054   -7.0236   31.1958 N   0  0  0  0  0  0  0  0  0  0  0  0
    0.9626   -6.2344   31.9741 C   0  0  0  0  0  0  0  0  0  0  0  0
    1.6431   -5.0640   31.3136 C   0  0  0  0  0  0  0  0  0  0  0  0
    1.2474   -3.6958   31.9039 C   0  0  0  0  0  0  0  0  0  0  0  0
   -0.2363   -3.5171   31.9108 N   0  0  0  0  0  0  0  0  0  0  0  0
   -0.8597   -4.1060   33.1257 C   0  0  0  0  0  0  0  0  0  0  0  0
   -0.8561   -1.9715   31.7353 S   0  0  0  0  0  0  0  0  0  0  0  0
   -0.3875   -1.2108   32.8710 O   0  0  0  0  0  0  0  0  0  0  0  0
   -2.2703   -2.1353   31.4809 O   0  0  0  0  0  0  0  0  0  0  0  0
   -0.1085   -1.4150   30.3750 N   0  0  0  0  0  0  0  0  0  0  0  0
   -0.6325   -1.8564   29.0528 C   0  0  0  0  0  0  0  0  0  0  0  0
   -0.9255   -0.5565   28.3161 C   0  0  0  0  0  0  0  0  0  0  0  0
    0.1255    0.4006   28.8514 C   0  0  0  0  0  0  0  0  0  0  0  0
    1.4587    0.1037   28.3121 N   0  0  0  0  0  0  0  0  0  0  0  0
    0.0503    0.0666   30.3397 C   0  0  0  0  0  0  0  0  0  0  0  0
    1.0284   -6.3403   33.3188 N   0  0  0  0  0  0  0  0  0  0  0  0
   -0.0500   -8.0807   35.8347 H   0  0  0  0  0  0  0  0  0  0  0  0
   -0.8462   -6.4891   35.7360 H   0  0  0  0  0  0  0  0  0  0  0  0
    0.9232   -6.6014   35.8390 H   0  0  0  0  0  0  0  0  0  0  0  0
   -1.5811   -8.4509   33.6674 H   0  0  0  0  0  0  0  0  0  0  0  0
   -0.6963   -8.6623   30.2954 H   0  0  0  0  0  0  0  0  0  0  0  0
    1.4045   -5.0710   30.2426 H   0  0  0  0  0  0  0  0  0  0  0  0
    2.7269   -5.1934   31.4012 H   0  0  0  0  0  0  0  0  0  0  0  0
    1.7250   -2.9248   31.2906 H   0  0  0  0  0  0  0  0  0  0  0  0
    1.6519   -3.5814   32.9166 H   0  0  0  0  0  0  0  0  0  0  0  0
   -1.6294   -3.4599   33.5565 H   0  0  0  0  0  0  0  0  0  0  0  0
   -0.1444   -4.2516   33.9378 H   0  0  0  0  0  0  0  0  0  0  0  0
   -1.3557   -5.0344   32.8509 H   0  0  0  0  0  0  0  0  0  0  0  0
   -1.5230   -2.4863   29.1164 H   0  0  0  0  0  0  0  0  0  0  0  0
    0.1517   -2.4349   28.5533 H   0  0  0  0  0  0  0  0  0  0  0  0
   -1.9213   -0.1960   28.5941 H   0  0  0  0  0  0  0  0  0  0  0  0
   -0.9147   -0.6588   27.2361 H   0  0  0  0  0  0  0  0  0  0  0  0
   -0.1275    1.4464   28.6527 H   0  0  0  0  0  0  0  0  0  0  0  0
    2.1353    0.7706   28.6805 H   0  0  0  0  0  0  0  0  0  0  0  0
    1.4523    0.2230   27.3016 H   0  0  0  0  0  0  0  0  0  0  0  0
   -0.8212    0.5644   30.7831 H   0  0  0  0  0  0  0  0  0  0  0  0
    0.9497    0.3729   30.8835 H   0  0  0  0  0  0  0  0  0  0  0  0
  1  2  1  0
  2  3  2  0
  3  4  1  0
  4  5  1  0
  4  6  2  0
  6  7  1  0
  7  8  1  0
  8  9  1  0
  9 10  1  0
 10 11  1  0
 10 12  1  0
 12 13  2  0
 12 14  2  0
 12 15  1  0
 15 16  1  0
 16 17  1  0
 17 18  1  0
 18 19  1  0
 18 20  1  0
  7 21  2  0
 21  2  1  0
 20 15  1  0
  1 22  1  0
  1 23  1  0
  1 24  1  0
  3 25  1  0
  5 26  1  0
  8 27  1  0
  8 28  1  0
  9 29  1  0
  9 30  1  0
 11 31  1  0
 11 32  1  0
 11 33  1  0
 16 34  1  0
 16 35  1  0
 17 36  1  0
 17 37  1  0
 18 38  1  0
 19 39  1  0
 19 40  1  0
 20 41  1  0
 20 42  1  0
M  END
>  <Energy>  (912) 
-174.82169194973403

>  <compound_id>  (912) 
2966

>  <target_id>  (912) 
1

>  <reference_id>  (912) 
190

>  <inspiration_ids>  (912) 
[190, 142]

>  <energy_score>  (912) 
-43.9904781840135

>  <distance_score>  (912) 
1.0690714248511257

>  <path>  (912) 
/opt/xchem-fragalysis-2/maxwin/BulkDock/SCRATCH/505736/C2966-P190/C2966-P190.minimised.mol

>  <scratch_subdir>  (912) 
/opt/xchem-fragalysis-2/maxwin/BulkDock/SCRATCH/505736/C2966-P190

>  <fragmenstein_runtime>  (912) 
2.1624839305877686

>  <fragmenstein_outcome>  (912) 
too moved

>  <fragmenstein_mode>  (912) 
expansion

>  <fragmenstein_error>  (912) 


$$$$
C2966-P142
     RDKit          3D

 42 43  0  0  0  0  0  0  0  0999 V2000
    0.0083   -7.1335   35.4109 C   0  0  0  0  0  0  0  0  0  0  0  0
    0.0882   -7.0650   33.9143 C   0  0  0  0  0  0  0  0  0  0  0  0
   -0.8644   -7.6853   33.1380 C   0  0  0  0  0  0  0  0  0  0  0  0
   -0.7309   -7.4888   31.7953 C   0  0  0  0  0  0  0  0  0  0  0  0
   -1.5555   -8.0685   30.8993 O   0  0  0  0  0  0  0  0  0  0  0  0
    0.1577   -6.6890   31.2084 N   0  0  0  0  0  0  0  0  0  0  0  0
    0.9786   -6.0399   32.0470 C   0  0  0  0  0  0  0  0  0  0  0  0
    1.6996   -4.8435   31.4889 C   0  0  0  0  0  0  0  0  0  0  0  0
    1.2169   -3.5081   32.0745 C   0  0  0  0  0  0  0  0  0  0  0  0
   -0.2679   -3.4128   32.0375 N   0  0  0  0  0  0  0  0  0  0  0  0
   -0.8964   -3.9921   33.2547 C   0  0  0  0  0  0  0  0  0  0  0  0
   -0.9645   -1.9228   31.7504 S   0  0  0  0  0  0  0  0  0  0  0  0
   -0.5638   -1.0698   32.8461 O   0  0  0  0  0  0  0  0  0  0  0  0
   -2.3607   -2.1782   31.4747 O   0  0  0  0  0  0  0  0  0  0  0  0
   -0.2010   -1.4199   30.3758 N   0  0  0  0  0  0  0  0  0  0  0  0
   -0.6933   -1.9292   29.0664 C   0  0  0  0  0  0  0  0  0  0  0  0
   -0.9767   -0.6683   28.2615 C   0  0  0  0  0  0  0  0  0  0  0  0
    0.0581    0.3203   28.7707 C   0  0  0  0  0  0  0  0  0  0  0  0
    1.4025    0.0095   28.2640 N   0  0  0  0  0  0  0  0  0  0  0  0
   -0.0413    0.0567   30.2718 C   0  0  0  0  0  0  0  0  0  0  0  0
    1.0440   -6.2671   33.3767 N   0  0  0  0  0  0  0  0  0  0  0  0
   -0.2850   -8.1330   35.7426 H   0  0  0  0  0  0  0  0  0  0  0  0
   -0.7279   -6.4108   35.7763 H   0  0  0  0  0  0  0  0  0  0  0  0
    0.9797   -6.9004   35.8579 H   0  0  0  0  0  0  0  0  0  0  0  0
   -1.6563   -8.2915   33.5492 H   0  0  0  0  0  0  0  0  0  0  0  0
   -1.1516   -7.6745   30.0995 H   0  0  0  0  0  0  0  0  0  0  0  0
    1.5797   -4.8267   30.3986 H   0  0  0  0  0  0  0  0  0  0  0  0
    2.7680   -4.9358   31.6961 H   0  0  0  0  0  0  0  0  0  0  0  0
    1.6797   -2.7037   31.4937 H   0  0  0  0  0  0  0  0  0  0  0  0
    1.5812   -3.3876   33.1020 H   0  0  0  0  0  0  0  0  0  0  0  0
   -1.6145   -3.3110   33.7215 H   0  0  0  0  0  0  0  0  0  0  0  0
   -0.1752   -4.2041   34.0464 H   0  0  0  0  0  0  0  0  0  0  0  0
   -1.4450   -4.8881   32.9716 H   0  0  0  0  0  0  0  0  0  0  0  0
   -1.5817   -2.5596   29.1426 H   0  0  0  0  0  0  0  0  0  0  0  0
    0.1033   -2.5265   28.6096 H   0  0  0  0  0  0  0  0  0  0  0  0
   -1.9820   -0.3003   28.4957 H   0  0  0  0  0  0  0  0  0  0  0  0
   -0.9351   -0.8256   27.1894 H   0  0  0  0  0  0  0  0  0  0  0  0
   -0.1990    1.3534   28.5174 H   0  0  0  0  0  0  0  0  0  0  0  0
    2.0596    0.7203   28.5821 H   0  0  0  0  0  0  0  0  0  0  0  0
    1.3967    0.0504   27.2464 H   0  0  0  0  0  0  0  0  0  0  0  0
   -0.9210    0.5710   30.6761 H   0  0  0  0  0  0  0  0  0  0  0  0
    0.8482    0.3906   30.8153 H   0  0  0  0  0  0  0  0  0  0  0  0
  1  2  1  0
  2  3  2  0
  3  4  1  0
  4  5  1  0
  4  6  2  0
  6  7  1  0
  7  8  1  0
  8  9  1  0
  9 10  1  0
 10 11  1  0
 10 12  1  0
 12 13  2  0
 12 14  2  0
 12 15  1  0
 15 16  1  0
 16 17  1  0
 17 18  1  0
 18 19  1  0
 18 20  1  0
  7 21  2  0
 21  2  1  0
 20 15  1  0
  1 22  1  0
  1 23  1  0
  1 24  1  0
  3 25  1  0
  5 26  1  0
  8 27  1  0
  8 28  1  0
  9 29  1  0
  9 30  1  0
 11 31  1  0
 11 32  1  0
 11 33  1  0
 16 34  1  0
 16 35  1  0
 17 36  1  0
 17 37  1  0
 18 38  1  0
 19 39  1  0
 19 40  1  0
 20 41  1  0
 20 42  1  0
M  END
>  <Energy>  (913) 
-176.7142087607549

>  <compound_id>  (913) 
2966

>  <target_id>  (913) 
1

>  <reference_id>  (913) 
142

>  <inspiration_ids>  (913) 
[190, 142]

>  <energy_score>  (913) 
-45.88299499503216

>  <distance_score>  (913) 
1.0983334374720433

>  <path>  (913) 
/opt/xchem-fragalysis-2/maxwin/BulkDock/SCRATCH/505736/C2966-P142/C2966-P142.minimised.mol

>  <scratch_subdir>  (913) 
/opt/xchem-fragalysis-2/maxwin/BulkDock/SCRATCH/505736/C2966-P142

>  <fragmenstein_runtime>  (913) 
2.1974895000457764

>  <fragmenstein_outcome>  (913) 
too moved

>  <fragmenstein_mode>  (913) 
expansion

>  <fragmenstein_error>  (913) 


$$$$
C149-P190
     RDKit          3D

 35 36  0  0  0  0  0  0  0  0999 V2000
    4.6037   -4.0856   32.3313 C   0  0  0  0  0  0  0  0  0  0  0  0
    4.2556   -2.8197   33.0571 C   0  0  0  0  0  0  0  0  0  0  0  0
    5.1655   -1.7613   33.0220 C   0  0  0  0  0  0  0  0  0  0  0  0
    4.8801   -0.5622   33.6718 C   0  0  0  0  0  0  0  0  0  0  0  0
    3.6835   -0.4012   34.3622 C   0  0  0  0  0  0  0  0  0  0  0  0
    2.7586   -1.4335   34.3917 C   0  0  0  0  0  0  0  0  0  0  0  0
    3.0389   -2.6271   33.7344 C   0  0  0  0  0  0  0  0  0  0  0  0
    2.0615   -3.5979   33.6540 N   0  0  0  0  0  0  0  0  0  0  0  0
    0.5715   -3.5720   34.1055 C   0  0  0  0  0  0  0  0  0  0  0  0
   -0.0311   -2.7526   34.6831 O   0  0  0  0  0  0  0  0  0  0  0  0
   -0.0774   -4.8080   33.5659 C   0  0  0  0  0  0  0  0  0  0  0  0
    0.0716   -4.8632   31.8139 S   0  0  0  0  0  0  0  0  0  0  0  0
   -0.8735   -5.8545   31.3356 O   0  0  0  0  0  0  0  0  0  0  0  0
    1.4900   -5.0527   31.5553 O   0  0  0  0  0  0  0  0  0  0  0  0
   -0.4185   -3.3058   31.1080 C   0  0  0  0  0  0  0  0  0  0  0  0
   -1.3888   -2.5203   31.7286 C   0  0  0  0  0  0  0  0  0  0  0  0
   -1.7893   -1.3270   31.1241 C   0  0  0  0  0  0  0  0  0  0  0  0
   -1.2582   -0.9372   29.8933 C   0  0  0  0  0  0  0  0  0  0  0  0
   -0.2932   -1.7192   29.2714 C   0  0  0  0  0  0  0  0  0  0  0  0
    0.1417   -2.8941   29.8876 C   0  0  0  0  0  0  0  0  0  0  0  0
    4.3858   -4.9570   32.9565 H   0  0  0  0  0  0  0  0  0  0  0  0
    5.6719   -4.1303   32.0921 H   0  0  0  0  0  0  0  0  0  0  0  0
    4.0458   -4.1505   31.3929 H   0  0  0  0  0  0  0  0  0  0  0  0
    6.1099   -1.8576   32.4907 H   0  0  0  0  0  0  0  0  0  0  0  0
    5.5987    0.2536   33.6410 H   0  0  0  0  0  0  0  0  0  0  0  0
    3.4680    0.5368   34.8671 H   0  0  0  0  0  0  0  0  0  0  0  0
    1.8236   -1.2723   34.9183 H   0  0  0  0  0  0  0  0  0  0  0  0
    2.2346   -4.4337   33.0982 H   0  0  0  0  0  0  0  0  0  0  0  0
    0.3957   -5.6992   33.9879 H   0  0  0  0  0  0  0  0  0  0  0  0
   -1.1330   -4.8233   33.8260 H   0  0  0  0  0  0  0  0  0  0  0  0
   -1.8564   -2.8053   32.6677 H   0  0  0  0  0  0  0  0  0  0  0  0
   -2.5406   -0.7042   31.6036 H   0  0  0  0  0  0  0  0  0  0  0  0
   -1.6004   -0.0216   29.4153 H   0  0  0  0  0  0  0  0  0  0  0  0
    0.1094   -1.4207   28.3062 H   0  0  0  0  0  0  0  0  0  0  0  0
    0.8884   -3.5090   29.3896 H   0  0  0  0  0  0  0  0  0  0  0  0
  1  2  1  0
  2  3  2  0
  3  4  1  0
  4  5  2  0
  5  6  1  0
  6  7  2  0
  7  8  1  0
  8  9  1  0
  9 10  2  0
  9 11  1  0
 11 12  1  0
 12 13  2  0
 12 14  2  0
 12 15  1  0
 15 16  2  0
 16 17  1  0
 17 18  2  0
 18 19  1  0
 19 20  2  0
  7  2  1  0
 20 15  1  0
  1 21  1  0
  1 22  1  0
  1 23  1  0
  3 24  1  0
  4 25  1  0
  5 26  1  0
  6 27  1  0
  8 28  1  0
 11 29  1  0
 11 30  1  0
 16 31  1  0
 17 32  1  0
 18 33  1  0
 19 34  1  0
 20 35  1  0
M  END
>  <Energy>  (914) 
40.260828195282691

>  <compound_id>  (914) 
149

>  <target_id>  (914) 
1

>  <reference_id>  (914) 
190

>  <inspiration_ids>  (914) 
[190, 156]

>  <energy_score>  (914) 
-29.161382529603628

>  <distance_score>  (914) 
2.360511198947548

>  <path>  (914) 
/opt/xchem-fragalysis-2/maxwin/BulkDock/SCRATCH/505736/C149-P190/C149-P190.minimised.mol

>  <scratch_subdir>  (914) 
/opt/xchem-fragalysis-2/maxwin/BulkDock/SCRATCH/505736/C149-P190

>  <fragmenstein_runtime>  (914) 
26.317664861679077

>  <fragmenstein_outcome>  (914) 
too moved

>  <fragmenstein_mode>  (914) 
expansion

>  <fragmenstein_error>  (914) 


$$$$
C149-P156
     RDKit          3D

 35 36  0  0  0  0  0  0  0  0999 V2000
    4.5605   -4.1090   32.3582 C   0  0  0  0  0  0  0  0  0  0  0  0
    4.2383   -2.8118   33.0398 C   0  0  0  0  0  0  0  0  0  0  0  0
    5.1752   -1.7784   32.9813 C   0  0  0  0  0  0  0  0  0  0  0  0
    4.9116   -0.5509   33.5854 C   0  0  0  0  0  0  0  0  0  0  0  0
    3.7089   -0.3351   34.2498 C   0  0  0  0  0  0  0  0  0  0  0  0
    2.7578   -1.3421   34.3015 C   0  0  0  0  0  0  0  0  0  0  0  0
    3.0196   -2.5668   33.6965 C   0  0  0  0  0  0  0  0  0  0  0  0
    2.0274   -3.5234   33.6506 N   0  0  0  0  0  0  0  0  0  0  0  0
    0.5649   -3.4882   34.1806 C   0  0  0  0  0  0  0  0  0  0  0  0
    0.0043   -2.6728   34.8041 O   0  0  0  0  0  0  0  0  0  0  0  0
   -0.1212   -4.7178   33.6735 C   0  0  0  0  0  0  0  0  0  0  0  0
    0.0179   -4.8430   31.9241 S   0  0  0  0  0  0  0  0  0  0  0  0
   -0.9650   -5.8198   31.4952 O   0  0  0  0  0  0  0  0  0  0  0  0
    1.4258   -5.0944   31.6602 O   0  0  0  0  0  0  0  0  0  0  0  0
   -0.4310   -3.2958   31.1690 C   0  0  0  0  0  0  0  0  0  0  0  0
   -1.3808   -2.4678   31.7663 C   0  0  0  0  0  0  0  0  0  0  0  0
   -1.7545   -1.2848   31.1250 C   0  0  0  0  0  0  0  0  0  0  0  0
   -1.2166   -0.9461   29.8822 C   0  0  0  0  0  0  0  0  0  0  0  0
   -0.2717   -1.7701   29.2840 C   0  0  0  0  0  0  0  0  0  0  0  0
    0.1362   -2.9357   29.9360 C   0  0  0  0  0  0  0  0  0  0  0  0
    4.3404   -4.9546   33.0174 H   0  0  0  0  0  0  0  0  0  0  0  0
    5.6242   -4.1764   32.1049 H   0  0  0  0  0  0  0  0  0  0  0  0
    3.9886   -4.2006   31.4304 H   0  0  0  0  0  0  0  0  0  0  0  0
    6.1235   -1.9161   32.4664 H   0  0  0  0  0  0  0  0  0  0  0  0
    5.6510    0.2453   33.5369 H   0  0  0  0  0  0  0  0  0  0  0  0
    3.5097    0.6259   34.7166 H   0  0  0  0  0  0  0  0  0  0  0  0
    1.8195   -1.1374   34.8065 H   0  0  0  0  0  0  0  0  0  0  0  0
    2.2095   -4.4246   33.2135 H   0  0  0  0  0  0  0  0  0  0  0  0
    0.3226   -5.6093   34.1257 H   0  0  0  0  0  0  0  0  0  0  0  0
   -1.1776   -4.6886   33.9342 H   0  0  0  0  0  0  0  0  0  0  0  0
   -1.8554   -2.7139   32.7128 H   0  0  0  0  0  0  0  0  0  0  0  0
   -2.4908   -0.6303   31.5846 H   0  0  0  0  0  0  0  0  0  0  0  0
   -1.5367   -0.0376   29.3763 H   0  0  0  0  0  0  0  0  0  0  0  0
    0.1353   -1.5123   28.3088 H   0  0  0  0  0  0  0  0  0  0  0  0
    0.8653   -3.5845   29.4556 H   0  0  0  0  0  0  0  0  0  0  0  0
  1  2  1  0
  2  3  2  0
  3  4  1  0
  4  5  2  0
  5  6  1  0
  6  7  2  0
  7  8  1  0
  8  9  1  0
  9 10  2  0
  9 11  1  0
 11 12  1  0
 12 13  2  0
 12 14  2  0
 12 15  1  0
 15 16  2  0
 16 17  1  0
 17 18  2  0
 18 19  1  0
 19 20  2  0
  7  2  1  0
 20 15  1  0
  1 21  1  0
  1 22  1  0
  1 23  1  0
  3 24  1  0
  4 25  1  0
  5 26  1  0
  6 27  1  0
  8 28  1  0
 11 29  1  0
 11 30  1  0
 16 31  1  0
 17 32  1  0
 18 33  1  0
 19 34  1  0
 20 35  1  0
M  END
>  <Energy>  (915) 
40.540787338667229

>  <compound_id>  (915) 
149

>  <target_id>  (915) 
1

>  <reference_id>  (915) 
156

>  <inspiration_ids>  (915) 
[190, 156]

>  <energy_score>  (915) 
-28.88142338621938

>  <distance_score>  (915) 
2.4082997918116367

>  <path>  (915) 
/opt/xchem-fragalysis-2/maxwin/BulkDock/SCRATCH/505736/C149-P156/C149-P156.minimised.mol

>  <scratch_subdir>  (915) 
/opt/xchem-fragalysis-2/maxwin/BulkDock/SCRATCH/505736/C149-P156

>  <fragmenstein_runtime>  (915) 
27.10790205001831

>  <fragmenstein_outcome>  (915) 
too moved

>  <fragmenstein_mode>  (915) 
expansion

>  <fragmenstein_error>  (915) 


$$$$
C2972-P190
     RDKit          3D

 35 37  0  0  0  0  0  0  0  0999 V2000
   -0.9482   -3.5919   35.7698 O   0  0  0  0  0  0  0  0  0  0  0  0
    0.0945   -3.8217   35.1640 C   0  0  0  0  0  0  0  0  0  0  0  0
    1.3546   -3.0689   35.4599 C   0  0  0  0  0  0  0  0  0  0  0  0
    1.7460   -1.7913   34.3133 S   0  0  0  0  0  0  0  0  0  0  0  0
    0.5485   -1.3771   33.6110 O   0  0  0  0  0  0  0  0  0  0  0  0
    2.5571   -0.8132   35.0180 O   0  0  0  0  0  0  0  0  0  0  0  0
    2.8488   -2.5319   33.1338 C   0  0  0  0  0  0  0  0  0  0  0  0
    4.0586   -3.0794   33.5756 C   0  0  0  0  0  0  0  0  0  0  0  0
    4.9247   -3.6677   32.6542 C   0  0  0  0  0  0  0  0  0  0  0  0
    4.5862   -3.6974   31.3011 C   0  0  0  0  0  0  0  0  0  0  0  0
    3.3888   -3.1285   30.8655 C   0  0  0  0  0  0  0  0  0  0  0  0
    2.5234   -2.5309   31.7791 C   0  0  0  0  0  0  0  0  0  0  0  0
    0.1755   -4.9132   34.1677 C   0  0  0  0  0  0  0  0  0  0  0  0
    0.9703   -5.9870   34.2983 C   0  0  0  0  0  0  0  0  0  0  0  0
    1.2242   -6.6473   32.9727 C   0  0  0  0  0  0  0  0  0  0  0  0
    0.5586   -5.7121   32.0287 C   0  0  0  0  0  0  0  0  0  0  0  0
    0.6439   -5.6235   30.6545 C   0  0  0  0  0  0  0  0  0  0  0  0
   -0.0702   -4.6095   30.0227 C   0  0  0  0  0  0  0  0  0  0  0  0
   -0.9040   -3.7655   30.7598 C   0  0  0  0  0  0  0  0  0  0  0  0
   -0.9758   -3.8615   32.1458 C   0  0  0  0  0  0  0  0  0  0  0  0
   -0.1924   -4.8014   32.7696 C   0  0  0  0  0  0  0  0  0  0  0  0
    2.2046   -3.7420   35.5896 H   0  0  0  0  0  0  0  0  0  0  0  0
    1.2157   -2.5758   36.4302 H   0  0  0  0  0  0  0  0  0  0  0  0
    4.3477   -3.0274   34.6226 H   0  0  0  0  0  0  0  0  0  0  0  0
    5.8734   -4.0834   32.9856 H   0  0  0  0  0  0  0  0  0  0  0  0
    5.2679   -4.1420   30.5800 H   0  0  0  0  0  0  0  0  0  0  0  0
    3.1348   -3.1327   29.8080 H   0  0  0  0  0  0  0  0  0  0  0  0
    1.6017   -2.0741   31.4243 H   0  0  0  0  0  0  0  0  0  0  0  0
    1.4833   -6.2727   35.2058 H   0  0  0  0  0  0  0  0  0  0  0  0
    0.7611   -7.6343   32.9427 H   0  0  0  0  0  0  0  0  0  0  0  0
    2.2974   -6.6755   32.7899 H   0  0  0  0  0  0  0  0  0  0  0  0
    1.2562   -6.3023   30.0745 H   0  0  0  0  0  0  0  0  0  0  0  0
   -0.0149   -4.4812   28.9449 H   0  0  0  0  0  0  0  0  0  0  0  0
   -1.4672   -2.9875   30.2444 H   0  0  0  0  0  0  0  0  0  0  0  0
   -1.5607   -3.1448   32.7192 H   0  0  0  0  0  0  0  0  0  0  0  0
  1  2  2  0
  2  3  1  0
  3  4  1  0
  4  5  2  0
  4  6  2  0
  4  7  1  0
  7  8  2  0
  8  9  1  0
  9 10  2  0
 10 11  1  0
 11 12  2  0
  2 13  1  0
 13 14  2  0
 14 15  1  0
 15 16  1  0
 16 17  2  0
 17 18  1  0
 18 19  2  0
 19 20  1  0
 20 21  2  0
 12  7  1  0
 21 13  1  0
 21 16  1  0
  3 22  1  0
  3 23  1  0
  8 24  1  0
  9 25  1  0
 10 26  1  0
 11 27  1  0
 12 28  1  0
 14 29  1  0
 15 30  1  0
 15 31  1  0
 17 32  1  0
 18 33  1  0
 19 34  1  0
 20 35  1  0
M  END
>  <Energy>  (916) 
65.945431227458968

>  <compound_id>  (916) 
2972

>  <target_id>  (916) 
1

>  <reference_id>  (916) 
190

>  <inspiration_ids>  (916) 
[190, 157]

>  <energy_score>  (916) 
-26.518012521772107

>  <distance_score>  (916) 
2.7819605499593107

>  <path>  (916) 
/opt/xchem-fragalysis-2/maxwin/BulkDock/SCRATCH/505736/C2972-P190/C2972-P190.minimised.mol

>  <scratch_subdir>  (916) 
/opt/xchem-fragalysis-2/maxwin/BulkDock/SCRATCH/505736/C2972-P190

>  <fragmenstein_runtime>  (916) 
4.96260142326355

>  <fragmenstein_outcome>  (916) 
too moved

>  <fragmenstein_mode>  (916) 
expansion

>  <fragmenstein_error>  (916) 


$$$$
C2972-P157
     RDKit          3D

 35 37  0  0  0  0  0  0  0  0999 V2000
    0.0296   -4.1424   36.3765 O   0  0  0  0  0  0  0  0  0  0  0  0
    0.1214   -3.8244   35.1910 C   0  0  0  0  0  0  0  0  0  0  0  0
    0.3038   -2.3965   34.7643 C   0  0  0  0  0  0  0  0  0  0  0  0
    1.9764   -1.8542   34.7964 S   0  0  0  0  0  0  0  0  0  0  0  0
    1.9722   -0.4366   34.4756 O   0  0  0  0  0  0  0  0  0  0  0  0
    2.6088   -2.3114   36.0191 O   0  0  0  0  0  0  0  0  0  0  0  0
    2.8097   -2.6439   33.4438 C   0  0  0  0  0  0  0  0  0  0  0  0
    3.8004   -3.5951   33.7042 C   0  0  0  0  0  0  0  0  0  0  0  0
    4.5095   -4.1554   32.6432 C   0  0  0  0  0  0  0  0  0  0  0  0
    4.2230   -3.7725   31.3323 C   0  0  0  0  0  0  0  0  0  0  0  0
    3.2345   -2.8208   31.0794 C   0  0  0  0  0  0  0  0  0  0  0  0
    2.5355   -2.2398   32.1356 C   0  0  0  0  0  0  0  0  0  0  0  0
    0.1228   -4.8769   34.1461 C   0  0  0  0  0  0  0  0  0  0  0  0
    0.9077   -5.9562   34.2908 C   0  0  0  0  0  0  0  0  0  0  0  0
    1.2321   -6.5758   32.9680 C   0  0  0  0  0  0  0  0  0  0  0  0
    0.6185   -5.6181   32.0134 C   0  0  0  0  0  0  0  0  0  0  0  0
    0.7743   -5.5006   30.6478 C   0  0  0  0  0  0  0  0  0  0  0  0
    0.0493   -4.5113   29.9931 C   0  0  0  0  0  0  0  0  0  0  0  0
   -0.8673   -3.7295   30.6974 C   0  0  0  0  0  0  0  0  0  0  0  0
   -1.0130   -3.8606   32.0755 C   0  0  0  0  0  0  0  0  0  0  0  0
   -0.1945   -4.7478   32.7337 C   0  0  0  0  0  0  0  0  0  0  0  0
   -0.2454   -1.7702   35.4774 H   0  0  0  0  0  0  0  0  0  0  0  0
   -0.1113   -2.1663   33.7865 H   0  0  0  0  0  0  0  0  0  0  0  0
    4.0467   -3.8818   34.7249 H   0  0  0  0  0  0  0  0  0  0  0  0
    5.2998   -4.8755   32.8409 H   0  0  0  0  0  0  0  0  0  0  0  0
    4.7858   -4.1993   30.5060 H   0  0  0  0  0  0  0  0  0  0  0  0
    3.0251   -2.5106   30.0581 H   0  0  0  0  0  0  0  0  0  0  0  0
    1.7955   -1.4695   31.9297 H   0  0  0  0  0  0  0  0  0  0  0  0
    1.4036   -6.2304   35.2137 H   0  0  0  0  0  0  0  0  0  0  0  0
    0.7531   -7.5518   32.8901 H   0  0  0  0  0  0  0  0  0  0  0  0
    2.3127   -6.6097   32.8383 H   0  0  0  0  0  0  0  0  0  0  0  0
    1.4451   -6.1430   30.0935 H   0  0  0  0  0  0  0  0  0  0  0  0
    0.1495   -4.3675   28.9200 H   0  0  0  0  0  0  0  0  0  0  0  0
   -1.4577   -2.9903   30.1551 H   0  0  0  0  0  0  0  0  0  0  0  0
   -1.7020   -3.2131   32.6106 H   0  0  0  0  0  0  0  0  0  0  0  0
  1  2  2  0
  2  3  1  0
  3  4  1  0
  4  5  2  0
  4  6  2  0
  4  7  1  0
  7  8  2  0
  8  9  1  0
  9 10  2  0
 10 11  1  0
 11 12  2  0
  2 13  1  0
 13 14  2  0
 14 15  1  0
 15 16  1  0
 16 17  2  0
 17 18  1  0
 18 19  2  0
 19 20  1  0
 20 21  2  0
 12  7  1  0
 21 13  1  0
 21 16  1  0
  3 22  1  0
  3 23  1  0
  8 24  1  0
  9 25  1  0
 10 26  1  0
 11 27  1  0
 12 28  1  0
 14 29  1  0
 15 30  1  0
 15 31  1  0
 17 32  1  0
 18 33  1  0
 19 34  1  0
 20 35  1  0
M  END
>  <Energy>  (917) 
64.13318786917327

>  <compound_id>  (917) 
2972

>  <target_id>  (917) 
1

>  <reference_id>  (917) 
157

>  <inspiration_ids>  (917) 
[190, 157]

>  <energy_score>  (917) 
-28.330255880056626

>  <distance_score>  (917) 
2.6562087097128804

>  <path>  (917) 
/opt/xchem-fragalysis-2/maxwin/BulkDock/SCRATCH/505736/C2972-P157/C2972-P157.minimised.mol

>  <scratch_subdir>  (917) 
/opt/xchem-fragalysis-2/maxwin/BulkDock/SCRATCH/505736/C2972-P157

>  <fragmenstein_runtime>  (917) 
4.934576511383057

>  <fragmenstein_outcome>  (917) 
too moved

>  <fragmenstein_mode>  (917) 
expansion

>  <fragmenstein_error>  (917) 


$$$$
C1931-P190
     RDKit          3D

 61 63  0  0  0  0  0  0  0  0999 V2000
    1.7121   -7.2646   36.6031 C   0  0  0  0  0  0  0  0  0  0  0  0
    2.1748   -7.3540   35.1624 C   0  0  0  0  0  0  0  0  0  0  0  0
    2.9033   -8.2446   34.8123 O   0  0  0  0  0  0  0  0  0  0  0  0
    1.6343   -6.2601   34.4319 N   0  0  0  0  0  0  0  0  0  0  0  0
    1.8888   -5.7946   33.0046 C   0  0  0  0  0  0  0  0  0  0  0  0
    1.2185   -4.4805   32.5417 C   0  0  0  0  0  0  0  0  0  0  0  0
   -0.2312   -4.6888   32.4199 N   0  0  0  0  0  0  0  0  0  0  0  0
   -1.0557   -3.6680   31.9785 C   0  0  0  0  0  0  0  0  0  0  0  0
   -1.1398   -3.0090   30.8176 C   0  0  0  0  0  0  0  0  0  0  0  0
   -0.3170   -3.1426   29.5531 C   0  0  0  0  0  0  0  0  0  0  0  0
   -0.0645   -1.7849   28.9112 C   0  0  0  0  0  0  0  0  0  0  0  0
   -1.1943   -1.0528   28.4868 C   0  0  0  0  0  0  0  0  0  0  0  0
   -1.1156    0.2958   28.1618 C   0  0  0  0  0  0  0  0  0  0  0  0
    0.0997    0.9465   28.2629 C   0  0  0  0  0  0  0  0  0  0  0  0
    1.2612    0.2270   28.5791 C   0  0  0  0  0  0  0  0  0  0  0  0
    2.5625    0.9708   28.5332 C   0  0  0  0  0  0  0  0  0  0  0  0
    1.1916   -1.1674   28.8189 C   0  0  0  0  0  0  0  0  0  0  0  0
    2.4061   -1.8716   28.8228 N   0  0  0  0  0  0  0  0  0  0  0  0
    2.7273   -3.2148   28.3821 C   0  0  0  0  0  0  0  0  0  0  0  0
    2.0219   -4.0948   27.9753 O   0  0  0  0  0  0  0  0  0  0  0  0
    4.2187   -3.4414   28.3909 C   0  0  0  0  0  0  0  0  0  0  0  0
    4.5704   -4.7985   29.4730 S   0  0  0  0  0  0  0  0  0  0  0  0
    4.2045   -4.4017   30.8217 O   0  0  0  0  0  0  0  0  0  0  0  0
    4.1069   -6.0580   28.9173 O   0  0  0  0  0  0  0  0  0  0  0  0
    6.3503   -4.8704   29.4248 C   0  0  0  0  0  0  0  0  0  0  0  0
    7.0996   -4.3143   30.4647 C   0  0  0  0  0  0  0  0  0  0  0  0
    8.4914   -4.3865   30.4164 C   0  0  0  0  0  0  0  0  0  0  0  0
    9.1229   -5.0169   29.3425 C   0  0  0  0  0  0  0  0  0  0  0  0
    8.3670   -5.5846   28.3152 C   0  0  0  0  0  0  0  0  0  0  0  0
    6.9750   -5.5178   28.3544 C   0  0  0  0  0  0  0  0  0  0  0  0
   -0.6904   -5.5035   33.5514 C   0  0  0  0  0  0  0  0  0  0  0  0
    0.2898   -6.6454   33.8352 C   0  0  0  0  0  0  0  0  0  0  0  0
    1.3719   -6.2556   36.8545 H   0  0  0  0  0  0  0  0  0  0  0  0
    0.8926   -7.9687   36.7664 H   0  0  0  0  0  0  0  0  0  0  0  0
    2.5477   -7.5146   37.2631 H   0  0  0  0  0  0  0  0  0  0  0  0
    1.8677   -6.5883   32.2449 H   0  0  0  0  0  0  0  0  0  0  0  0
    2.9628   -5.5606   33.0489 H   0  0  0  0  0  0  0  0  0  0  0  0
    1.6473   -4.1811   31.5832 H   0  0  0  0  0  0  0  0  0  0  0  0
    1.4215   -3.6843   33.2689 H   0  0  0  0  0  0  0  0  0  0  0  0
   -1.8015   -3.4106   32.7340 H   0  0  0  0  0  0  0  0  0  0  0  0
   -1.9404   -2.2730   30.7616 H   0  0  0  0  0  0  0  0  0  0  0  0
   -0.8544   -3.7700   28.8335 H   0  0  0  0  0  0  0  0  0  0  0  0
    0.6106   -3.6527   29.7972 H   0  0  0  0  0  0  0  0  0  0  0  0
   -2.1561   -1.5536   28.4101 H   0  0  0  0  0  0  0  0  0  0  0  0
   -1.9973    0.8375   27.8339 H   0  0  0  0  0  0  0  0  0  0  0  0
    0.1456    2.0083   28.0302 H   0  0  0  0  0  0  0  0  0  0  0  0
    3.1418    0.7891   29.4444 H   0  0  0  0  0  0  0  0  0  0  0  0
    3.1460    0.6624   27.6597 H   0  0  0  0  0  0  0  0  0  0  0  0
    2.4108    2.0539   28.4681 H   0  0  0  0  0  0  0  0  0  0  0  0
    3.2627   -1.3754   29.0204 H   0  0  0  0  0  0  0  0  0  0  0  0
    4.5478   -3.6946   27.3792 H   0  0  0  0  0  0  0  0  0  0  0  0
    4.7825   -2.5758   28.7464 H   0  0  0  0  0  0  0  0  0  0  0  0
    6.6185   -3.8358   31.3147 H   0  0  0  0  0  0  0  0  0  0  0  0
    9.0874   -3.9610   31.2208 H   0  0  0  0  0  0  0  0  0  0  0  0
   10.2088   -5.0774   29.3126 H   0  0  0  0  0  0  0  0  0  0  0  0
    8.8659   -6.0883   27.4902 H   0  0  0  0  0  0  0  0  0  0  0  0
    6.3935   -5.9800   27.5594 H   0  0  0  0  0  0  0  0  0  0  0  0
   -0.8096   -4.8827   34.4480 H   0  0  0  0  0  0  0  0  0  0  0  0
   -1.6476   -5.9601   33.2965 H   0  0  0  0  0  0  0  0  0  0  0  0
   -0.2028   -7.2135   34.6415 H   0  0  0  0  0  0  0  0  0  0  0  0
    0.3356   -7.4134   33.0433 H   0  0  0  0  0  0  0  0  0  0  0  0
  1  2  1  0
  2  3  2  0
  2  4  1  0
  4  5  1  0
  5  6  1  0
  6  7  1  0
  7  8  1  0
  8  9  2  3
  9 10  1  0
 10 11  1  0
 11 12  2  0
 12 13  1  0
 13 14  2  0
 14 15  1  0
 15 16  1  0
 15 17  2  0
 17 18  1  0
 18 19  1  0
 19 20  2  0
 19 21  1  0
 21 22  1  0
 22 23  2  0
 22 24  2  0
 22 25  1  0
 25 26  2  0
 26 27  1  0
 27 28  2  0
 28 29  1  0
 29 30  2  0
  7 31  1  0
 31 32  1  0
 32  4  1  0
 17 11  1  0
 30 25  1  0
  1 33  1  0
  1 34  1  0
  1 35  1  0
  5 36  1  0
  5 37  1  0
  6 38  1  0
  6 39  1  0
  8 40  1  0
  9 41  1  0
 10 42  1  0
 10 43  1  0
 12 44  1  0
 13 45  1  0
 14 46  1  0
 16 47  1  0
 16 48  1  0
 16 49  1  0
 18 50  1  0
 21 51  1  0
 21 52  1  0
 26 53  1  0
 27 54  1  0
 28 55  1  0
 29 56  1  0
 30 57  1  0
 31 58  1  0
 31 59  1  0
 32 60  1  0
 32 61  1  0
M  END
>  <Energy>  (918) 
177.11254394287832

>  <compound_id>  (918) 
1931

>  <target_id>  (918) 
1

>  <reference_id>  (918) 
190

>  <inspiration_ids>  (918) 
[190, 162]

>  <energy_score>  (918) 
25.843306486324764

>  <distance_score>  (918) 
3.4171377189741245

>  <path>  (918) 
/opt/xchem-fragalysis-2/maxwin/BulkDock/SCRATCH/505736/C1931-P190/C1931-P190.minimised.mol

>  <scratch_subdir>  (918) 
/opt/xchem-fragalysis-2/maxwin/BulkDock/SCRATCH/505736/C1931-P190

>  <fragmenstein_runtime>  (918) 
20.96931552886963

>  <fragmenstein_outcome>  (918) 
too moved

>  <fragmenstein_mode>  (918) 
expansion

>  <fragmenstein_error>  (918) 


$$$$
C1931-P162
     RDKit          3D

 61 63  0  0  0  0  0  0  0  0999 V2000
    0.1032   -7.7702   35.6738 C   0  0  0  0  0  0  0  0  0  0  0  0
    1.3256   -7.3926   34.8559 C   0  0  0  0  0  0  0  0  0  0  0  0
    2.2688   -8.1305   34.7482 O   0  0  0  0  0  0  0  0  0  0  0  0
    1.1360   -6.0680   34.3952 N   0  0  0  0  0  0  0  0  0  0  0  0
    2.0864   -5.1148   33.7227 C   0  0  0  0  0  0  0  0  0  0  0  0
    1.5332   -3.6852   33.6178 C   0  0  0  0  0  0  0  0  0  0  0  0
    0.5003   -3.6244   32.5716 N   0  0  0  0  0  0  0  0  0  0  0  0
   -0.1866   -2.4402   32.3694 C   0  0  0  0  0  0  0  0  0  0  0  0
   -0.7762   -2.0068   31.2506 C   0  0  0  0  0  0  0  0  0  0  0  0
   -0.6498   -2.6028   29.8655 C   0  0  0  0  0  0  0  0  0  0  0  0
   -0.5178   -1.4792   28.8506 C   0  0  0  0  0  0  0  0  0  0  0  0
   -1.7362   -0.9100   28.4139 C   0  0  0  0  0  0  0  0  0  0  0  0
   -1.7866    0.3533   27.8384 C   0  0  0  0  0  0  0  0  0  0  0  0
   -0.6234    1.0895   27.7193 C   0  0  0  0  0  0  0  0  0  0  0  0
    0.6109    0.5240   28.0698 C   0  0  0  0  0  0  0  0  0  0  0  0
    1.8357    1.3686   27.8641 C   0  0  0  0  0  0  0  0  0  0  0  0
    0.6799   -0.8051   28.5612 C   0  0  0  0  0  0  0  0  0  0  0  0
    1.9712   -1.3446   28.6970 N   0  0  0  0  0  0  0  0  0  0  0  0
    2.4462   -2.7131   28.6056 C   0  0  0  0  0  0  0  0  0  0  0  0
    1.8464   -3.7445   28.4692 O   0  0  0  0  0  0  0  0  0  0  0  0
    3.9521   -2.7506   28.6035 C   0  0  0  0  0  0  0  0  0  0  0  0
    4.6183   -2.9119   30.2308 S   0  0  0  0  0  0  0  0  0  0  0  0
    3.8187   -3.8139   31.0350 O   0  0  0  0  0  0  0  0  0  0  0  0
    6.0419   -3.1629   30.0778 O   0  0  0  0  0  0  0  0  0  0  0  0
    4.4685   -1.2783   30.9212 C   0  0  0  0  0  0  0  0  0  0  0  0
    5.5540   -0.3998   30.8642 C   0  0  0  0  0  0  0  0  0  0  0  0
    5.4229    0.8868   31.3872 C   0  0  0  0  0  0  0  0  0  0  0  0
    4.2183    1.2869   31.9679 C   0  0  0  0  0  0  0  0  0  0  0  0
    3.1438    0.4000   32.0368 C   0  0  0  0  0  0  0  0  0  0  0  0
    3.2699   -0.8885   31.5204 C   0  0  0  0  0  0  0  0  0  0  0  0
   -0.3130   -4.8499   32.5923 C   0  0  0  0  0  0  0  0  0  0  0  0
    0.5087   -6.0816   32.9978 C   0  0  0  0  0  0  0  0  0  0  0  0
   -0.5130   -8.4694   35.1089 H   0  0  0  0  0  0  0  0  0  0  0  0
    0.4269   -8.2187   36.6165 H   0  0  0  0  0  0  0  0  0  0  0  0
   -0.5072   -6.8952   35.9205 H   0  0  0  0  0  0  0  0  0  0  0  0
    2.8963   -5.0500   34.4663 H   0  0  0  0  0  0  0  0  0  0  0  0
    2.6413   -5.4886   32.8477 H   0  0  0  0  0  0  0  0  0  0  0  0
    2.3494   -2.9978   33.3793 H   0  0  0  0  0  0  0  0  0  0  0  0
    1.1102   -3.3796   34.5838 H   0  0  0  0  0  0  0  0  0  0  0  0
   -0.2566   -1.8318   33.2712 H   0  0  0  0  0  0  0  0  0  0  0  0
   -1.3241   -1.0684   31.3140 H   0  0  0  0  0  0  0  0  0  0  0  0
   -1.5521   -3.1837   29.6466 H   0  0  0  0  0  0  0  0  0  0  0  0
    0.1728   -3.3084   29.8304 H   0  0  0  0  0  0  0  0  0  0  0  0
   -2.6671   -1.4514   28.5683 H   0  0  0  0  0  0  0  0  0  0  0  0
   -2.7318    0.7791   27.5157 H   0  0  0  0  0  0  0  0  0  0  0  0
   -0.6828    2.0979   27.3157 H   0  0  0  0  0  0  0  0  0  0  0  0
    2.5163    0.8977   27.1477 H   0  0  0  0  0  0  0  0  0  0  0  0
    1.5877    2.3607   27.4712 H   0  0  0  0  0  0  0  0  0  0  0  0
    2.3553    1.5194   28.8161 H   0  0  0  0  0  0  0  0  0  0  0  0
    2.7650   -0.7204   28.7243 H   0  0  0  0  0  0  0  0  0  0  0  0
    4.2742   -3.6311   28.0361 H   0  0  0  0  0  0  0  0  0  0  0  0
    4.3945   -1.8781   28.1148 H   0  0  0  0  0  0  0  0  0  0  0  0
    6.5020   -0.7033   30.4246 H   0  0  0  0  0  0  0  0  0  0  0  0
    6.2622    1.5780   31.3499 H   0  0  0  0  0  0  0  0  0  0  0  0
    4.1196    2.2904   32.3764 H   0  0  0  0  0  0  0  0  0  0  0  0
    2.2071    0.7114   32.4938 H   0  0  0  0  0  0  0  0  0  0  0  0
    2.4239   -1.5698   31.5722 H   0  0  0  0  0  0  0  0  0  0  0  0
   -1.1221   -4.7231   33.3160 H   0  0  0  0  0  0  0  0  0  0  0  0
   -0.7603   -5.0250   31.6078 H   0  0  0  0  0  0  0  0  0  0  0  0
    1.1628   -6.4710   32.1983 H   0  0  0  0  0  0  0  0  0  0  0  0
   -0.2415   -6.8880   33.0541 H   0  0  0  0  0  0  0  0  0  0  0  0
  1  2  1  0
  2  3  2  0
  2  4  1  0
  4  5  1  0
  5  6  1  0
  6  7  1  0
  7  8  1  0
  8  9  2  3
  9 10  1  0
 10 11  1  0
 11 12  2  0
 12 13  1  0
 13 14  2  0
 14 15  1  0
 15 16  1  0
 15 17  2  0
 17 18  1  0
 18 19  1  0
 19 20  2  0
 19 21  1  0
 21 22  1  0
 22 23  2  0
 22 24  2  0
 22 25  1  0
 25 26  2  0
 26 27  1  0
 27 28  2  0
 28 29  1  0
 29 30  2  0
  7 31  1  0
 31 32  1  0
 32  4  1  0
 17 11  1  0
 30 25  1  0
  1 33  1  0
  1 34  1  0
  1 35  1  0
  5 36  1  0
  5 37  1  0
  6 38  1  0
  6 39  1  0
  8 40  1  0
  9 41  1  0
 10 42  1  0
 10 43  1  0
 12 44  1  0
 13 45  1  0
 14 46  1  0
 16 47  1  0
 16 48  1  0
 16 49  1  0
 18 50  1  0
 21 51  1  0
 21 52  1  0
 26 53  1  0
 27 54  1  0
 28 55  1  0
 29 56  1  0
 30 57  1  0
 31 58  1  0
 31 59  1  0
 32 60  1  0
 32 61  1  0
M  END
>  <Energy>  (919) 
177.7497489120808

>  <compound_id>  (919) 
1931

>  <target_id>  (919) 
1

>  <reference_id>  (919) 
162

>  <inspiration_ids>  (919) 
[190, 162]

>  <energy_score>  (919) 
26.48051145552631

>  <distance_score>  (919) 
3.2823632062071484

>  <path>  (919) 
/opt/xchem-fragalysis-2/maxwin/BulkDock/SCRATCH/505736/C1931-P162/C1931-P162.minimised.mol

>  <scratch_subdir>  (919) 
/opt/xchem-fragalysis-2/maxwin/BulkDock/SCRATCH/505736/C1931-P162

>  <fragmenstein_runtime>  (919) 
21.392261028289795

>  <fragmenstein_outcome>  (919) 
too moved

>  <fragmenstein_mode>  (919) 
expansion

>  <fragmenstein_error>  (919) 


$$$$
C2975-P190
     RDKit          3D

 36 37  0  0  0  0  0  0  0  0999 V2000
   -1.2518   -1.4241   28.8915 C   0  0  0  0  0  0  0  0  0  0  0  0
   -1.2935   -1.0520   30.3667 C   0  0  0  0  0  0  0  0  0  0  0  0
   -0.3701   -1.9260   31.2019 C   0  0  0  0  0  0  0  0  0  0  0  0
   -0.8262   -3.3832   31.1748 C   0  0  0  0  0  0  0  0  0  0  0  0
   -1.9065   -3.7118   31.4709 O   0  0  0  0  0  0  0  0  0  0  0  0
    0.3874   -4.2258   30.7125 N   0  0  0  0  0  0  0  0  0  0  0  0
    0.5506   -5.6552   30.6105 C   0  0  0  0  0  0  0  0  0  0  0  0
    0.4134   -6.3034   31.9697 C   0  0  0  0  0  0  0  0  0  0  0  0
   -0.5559   -7.2401   32.1202 N   0  0  0  0  0  0  0  0  0  0  0  0
   -0.8346   -7.6221   33.3826 C   0  0  0  0  0  0  0  0  0  0  0  0
   -0.1577   -7.1207   34.4597 C   0  0  0  0  0  0  0  0  0  0  0  0
    0.8387   -6.2119   34.1904 C   0  0  0  0  0  0  0  0  0  0  0  0
    1.1808   -5.8006   32.9680 N   0  0  0  0  0  0  0  0  0  0  0  0
    1.4433   -5.6796   35.4638 C   0  0  0  0  0  0  0  0  0  0  0  0
    0.9222   -4.2848   35.7885 C   0  0  0  0  0  0  0  0  0  0  0  0
    0.9762   -6.7398   36.4740 C   0  0  0  0  0  0  0  0  0  0  0  0
   -0.3424   -7.2992   35.9265 C   0  0  0  0  0  0  0  0  0  0  0  0
   -1.8726   -0.7375   28.3084 H   0  0  0  0  0  0  0  0  0  0  0  0
   -1.6230   -2.4384   28.7232 H   0  0  0  0  0  0  0  0  0  0  0  0
   -0.2303   -1.3640   28.5022 H   0  0  0  0  0  0  0  0  0  0  0  0
   -2.3199   -1.1246   30.7393 H   0  0  0  0  0  0  0  0  0  0  0  0
   -0.9901   -0.0044   30.4778 H   0  0  0  0  0  0  0  0  0  0  0  0
    0.6605   -1.7972   30.8586 H   0  0  0  0  0  0  0  0  0  0  0  0
   -0.3952   -1.6021   32.2491 H   0  0  0  0  0  0  0  0  0  0  0  0
    1.1963   -3.6281   30.6161 H   0  0  0  0  0  0  0  0  0  0  0  0
    1.5374   -5.8619   30.1884 H   0  0  0  0  0  0  0  0  0  0  0  0
   -0.2224   -6.0337   29.9374 H   0  0  0  0  0  0  0  0  0  0  0  0
   -1.6447   -8.3338   33.4896 H   0  0  0  0  0  0  0  0  0  0  0  0
    2.5366   -5.6679   35.3976 H   0  0  0  0  0  0  0  0  0  0  0  0
    1.2157   -3.5694   35.0122 H   0  0  0  0  0  0  0  0  0  0  0  0
    1.3305   -3.9349   36.7423 H   0  0  0  0  0  0  0  0  0  0  0  0
   -0.1712   -4.2609   35.8603 H   0  0  0  0  0  0  0  0  0  0  0  0
    0.8752   -6.3577   37.4950 H   0  0  0  0  0  0  0  0  0  0  0  0
    1.7166   -7.5519   36.5067 H   0  0  0  0  0  0  0  0  0  0  0  0
   -0.4829   -8.3443   36.2034 H   0  0  0  0  0  0  0  0  0  0  0  0
   -1.1876   -6.6955   36.2650 H   0  0  0  0  0  0  0  0  0  0  0  0
  1  2  1  0
  2  3  1  0
  3  4  1  0
  4  5  2  0
  4  6  1  0
  6  7  1  0
  7  8  1  0
  8  9  2  0
  9 10  1  0
 10 11  2  0
 11 12  1  0
 12 13  2  0
 12 14  1  0
 14 15  1  0
 14 16  1  0
 16 17  1  0
 13  8  1  0
 17 11  1  0
  1 18  1  0
  1 19  1  0
  1 20  1  0
  2 21  1  0
  2 22  1  0
  3 23  1  0
  3 24  1  0
  6 25  1  0
  7 26  1  0
  7 27  1  0
 10 28  1  0
 14 29  1  0
 15 30  1  0
 15 31  1  0
 15 32  1  0
 16 33  1  0
 16 34  1  0
 17 35  1  0
 17 36  1  0
M  END
>  <Energy>  (920) 
25.772732095767058

>  <compound_id>  (920) 
2975

>  <target_id>  (920) 
1

>  <reference_id>  (920) 
190

>  <inspiration_ids>  (920) 
[190, 164]

>  <energy_score>  (920) 
-12.22670755385716

>  <distance_score>  (920) 
1.9077941845396529

>  <path>  (920) 
/opt/xchem-fragalysis-2/maxwin/BulkDock/SCRATCH/505736/C2975-P190/C2975-P190.minimised.mol

>  <scratch_subdir>  (920) 
/opt/xchem-fragalysis-2/maxwin/BulkDock/SCRATCH/505736/C2975-P190

>  <fragmenstein_runtime>  (920) 
2.4833970069885254

>  <fragmenstein_outcome>  (920) 
too moved

>  <fragmenstein_mode>  (920) 
expansion

>  <fragmenstein_error>  (920) 


$$$$
C2975-P164
     RDKit          3D

 36 37  0  0  0  0  0  0  0  0999 V2000
   -1.0596   -1.3937   28.8793 C   0  0  0  0  0  0  0  0  0  0  0  0
   -1.2312   -0.8103   30.2725 C   0  0  0  0  0  0  0  0  0  0  0  0
   -0.5518   -1.6237   31.3575 C   0  0  0  0  0  0  0  0  0  0  0  0
   -1.0153   -3.0769   31.3506 C   0  0  0  0  0  0  0  0  0  0  0  0
   -2.0728   -3.4099   31.7145 O   0  0  0  0  0  0  0  0  0  0  0  0
    0.1826   -3.9175   30.8460 N   0  0  0  0  0  0  0  0  0  0  0  0
    0.3591   -5.3441   30.7751 C   0  0  0  0  0  0  0  0  0  0  0  0
    0.7036   -5.8702   32.1457 C   0  0  0  0  0  0  0  0  0  0  0  0
    2.0103   -6.0586   32.4228 N   0  0  0  0  0  0  0  0  0  0  0  0
    2.3276   -6.2754   33.7156 C   0  0  0  0  0  0  0  0  0  0  0  0
    1.4048   -6.3330   34.7100 C   0  0  0  0  0  0  0  0  0  0  0  0
    0.1086   -6.1503   34.3146 C   0  0  0  0  0  0  0  0  0  0  0  0
   -0.2839   -5.9341   33.0568 N   0  0  0  0  0  0  0  0  0  0  0  0
   -0.8235   -6.4259   35.4561 C   0  0  0  0  0  0  0  0  0  0  0  0
   -1.3400   -7.8272   35.2271 C   0  0  0  0  0  0  0  0  0  0  0  0
    0.1273   -6.2916   36.6613 C   0  0  0  0  0  0  0  0  0  0  0  0
    1.5324   -6.6441   36.1607 C   0  0  0  0  0  0  0  0  0  0  0  0
   -1.5215   -0.7367   28.1355 H   0  0  0  0  0  0  0  0  0  0  0  0
   -1.5300   -2.3758   28.7934 H   0  0  0  0  0  0  0  0  0  0  0  0
    0.0006   -1.4958   28.6264 H   0  0  0  0  0  0  0  0  0  0  0  0
   -2.2933   -0.7151   30.5067 H   0  0  0  0  0  0  0  0  0  0  0  0
   -0.8230    0.2073   30.2851 H   0  0  0  0  0  0  0  0  0  0  0  0
    0.5357   -1.5383   31.2656 H   0  0  0  0  0  0  0  0  0  0  0  0
   -0.7978   -1.2092   32.3429 H   0  0  0  0  0  0  0  0  0  0  0  0
    0.9199   -3.3008   30.5325 H   0  0  0  0  0  0  0  0  0  0  0  0
    1.1573   -5.5602   30.0592 H   0  0  0  0  0  0  0  0  0  0  0  0
   -0.5650   -5.8085   30.4366 H   0  0  0  0  0  0  0  0  0  0  0  0
    3.3856   -6.3847   33.9287 H   0  0  0  0  0  0  0  0  0  0  0  0
   -1.6279   -5.6964   35.5239 H   0  0  0  0  0  0  0  0  0  0  0  0
   -1.9041   -7.8994   34.2908 H   0  0  0  0  0  0  0  0  0  0  0  0
   -1.9814   -8.1769   36.0226 H   0  0  0  0  0  0  0  0  0  0  0  0
   -0.5033   -8.5236   35.1691 H   0  0  0  0  0  0  0  0  0  0  0  0
   -0.1747   -6.9014   37.5189 H   0  0  0  0  0  0  0  0  0  0  0  0
    0.1262   -5.2449   36.9970 H   0  0  0  0  0  0  0  0  0  0  0  0
    2.2989   -6.0397   36.6532 H   0  0  0  0  0  0  0  0  0  0  0  0
    1.7465   -7.7082   36.3025 H   0  0  0  0  0  0  0  0  0  0  0  0
  1  2  1  0
  2  3  1  0
  3  4  1  0
  4  5  2  0
  4  6  1  0
  6  7  1  0
  7  8  1  0
  8  9  2  0
  9 10  1  0
 10 11  2  0
 11 12  1  0
 12 13  2  0
 12 14  1  0
 14 15  1  0
 14 16  1  0
 16 17  1  0
 13  8  1  0
 17 11  1  0
  1 18  1  0
  1 19  1  0
  1 20  1  0
  2 21  1  0
  2 22  1  0
  3 23  1  0
  3 24  1  0
  6 25  1  0
  7 26  1  0
  7 27  1  0
 10 28  1  0
 14 29  1  0
 15 30  1  0
 15 31  1  0
 15 32  1  0
 16 33  1  0
 16 34  1  0
 17 35  1  0
 17 36  1  0
M  END
>  <Energy>  (921) 
29.633578167761694

>  <compound_id>  (921) 
2975

>  <target_id>  (921) 
1

>  <reference_id>  (921) 
164

>  <inspiration_ids>  (921) 
[190, 164]

>  <energy_score>  (921) 
-8.365861481863817

>  <distance_score>  (921) 
2.3133081343197106

>  <path>  (921) 
/opt/xchem-fragalysis-2/maxwin/BulkDock/SCRATCH/505736/C2975-P164/C2975-P164.minimised.mol

>  <scratch_subdir>  (921) 
/opt/xchem-fragalysis-2/maxwin/BulkDock/SCRATCH/505736/C2975-P164

>  <fragmenstein_runtime>  (921) 
3.3003313541412354

>  <fragmenstein_outcome>  (921) 
too moved

>  <fragmenstein_mode>  (921) 
expansion

>  <fragmenstein_error>  (921) 


$$$$
C2976-P190
     RDKit          3D

 46 48  0  0  0  0  0  0  0  0999 V2000
    4.4214   -4.0418   31.5742 O   0  0  0  0  0  0  0  0  0  0  0  0
    3.3399   -3.8448   31.9794 C   0  0  0  0  0  0  0  0  0  0  0  0
    2.3551   -3.0494   31.1841 C   0  0  0  0  0  0  0  0  0  0  0  0
    0.8664   -3.9200   30.8656 S   0  0  0  0  0  0  0  0  0  0  0  0
    0.3237   -4.3755   32.1314 O   0  0  0  0  0  0  0  0  0  0  0  0
    1.0548   -4.8226   29.7502 O   0  0  0  0  0  0  0  0  0  0  0  0
   -0.1633   -2.5757   30.3470 C   0  0  0  0  0  0  0  0  0  0  0  0
   -1.0552   -2.0139   31.2631 C   0  0  0  0  0  0  0  0  0  0  0  0
   -1.7219   -0.8459   30.9149 C   0  0  0  0  0  0  0  0  0  0  0  0
   -1.5184   -0.2718   29.6586 C   0  0  0  0  0  0  0  0  0  0  0  0
   -0.6715   -0.8666   28.7300 C   0  0  0  0  0  0  0  0  0  0  0  0
    0.0238   -2.0162   29.0802 C   0  0  0  0  0  0  0  0  0  0  0  0
    2.6944   -4.2031   33.3558 N   0  0  0  0  0  0  0  0  0  0  0  0
    3.2549   -4.7661   34.4950 C   0  0  0  0  0  0  0  0  0  0  0  0
    4.6376   -4.9792   34.5238 C   0  0  0  0  0  0  0  0  0  0  0  0
    5.2733   -5.3457   35.7001 C   0  0  0  0  0  0  0  0  0  0  0  0
    4.5237   -5.5117   36.8543 C   0  0  0  0  0  0  0  0  0  0  0  0
    3.1382   -5.3573   36.8291 C   0  0  0  0  0  0  0  0  0  0  0  0
    2.4925   -4.9947   35.6504 C   0  0  0  0  0  0  0  0  0  0  0  0
    1.0108   -4.9348   35.6692 C   0  0  0  0  0  0  0  0  0  0  0  0
    0.3854   -5.7417   34.9847 O   0  0  0  0  0  0  0  0  0  0  0  0
    0.3556   -3.8822   36.5648 C   0  0  0  0  0  0  0  0  0  0  0  0
   -1.1084   -3.6900   36.1465 C   0  0  0  0  0  0  0  0  0  0  0  0
   -1.7731   -2.7200   36.9689 O   0  0  0  0  0  0  0  0  0  0  0  0
   -1.4780   -2.8845   38.3639 C   0  0  0  0  0  0  0  0  0  0  0  0
   -0.7229   -4.1739   38.6824 C   0  0  0  0  0  0  0  0  0  0  0  0
    0.5042   -4.2430   37.9465 O   0  0  0  0  0  0  0  0  0  0  0  0
    2.7985   -2.7682   30.2238 H   0  0  0  0  0  0  0  0  0  0  0  0
    2.1246   -2.1386   31.7463 H   0  0  0  0  0  0  0  0  0  0  0  0
   -1.2129   -2.4455   32.2486 H   0  0  0  0  0  0  0  0  0  0  0  0
   -2.4033   -0.3755   31.6185 H   0  0  0  0  0  0  0  0  0  0  0  0
   -2.0279    0.6516   29.3937 H   0  0  0  0  0  0  0  0  0  0  0  0
   -0.5532   -0.4308   27.7407 H   0  0  0  0  0  0  0  0  0  0  0  0
    0.7048   -2.4680   28.3644 H   0  0  0  0  0  0  0  0  0  0  0  0
    1.7035   -3.9573   33.3428 H   0  0  0  0  0  0  0  0  0  0  0  0
    5.2566   -4.8196   33.6452 H   0  0  0  0  0  0  0  0  0  0  0  0
    6.3511   -5.4872   35.7197 H   0  0  0  0  0  0  0  0  0  0  0  0
    5.0160   -5.7984   37.7818 H   0  0  0  0  0  0  0  0  0  0  0  0
    2.5765   -5.5555   37.7396 H   0  0  0  0  0  0  0  0  0  0  0  0
    0.8851   -2.9315   36.4275 H   0  0  0  0  0  0  0  0  0  0  0  0
   -1.1722   -3.3477   35.1081 H   0  0  0  0  0  0  0  0  0  0  0  0
   -1.6671   -4.6298   36.2180 H   0  0  0  0  0  0  0  0  0  0  0  0
   -2.4215   -2.8410   38.9162 H   0  0  0  0  0  0  0  0  0  0  0  0
   -0.8740   -2.0193   38.6581 H   0  0  0  0  0  0  0  0  0  0  0  0
   -0.4784   -4.2195   39.7480 H   0  0  0  0  0  0  0  0  0  0  0  0
   -1.3171   -5.0607   38.4406 H   0  0  0  0  0  0  0  0  0  0  0  0
  1  2  2  0
  2  3  1  0
  3  4  1  0
  4  5  2  0
  4  6  2  0
  4  7  1  0
  7  8  2  0
  8  9  1  0
  9 10  2  0
 10 11  1  0
 11 12  2  0
  2 13  1  0
 13 14  1  0
 14 15  2  0
 15 16  1  0
 16 17  2  0
 17 18  1  0
 18 19  2  0
 19 20  1  0
 20 21  2  0
 20 22  1  0
 22 23  1  0
 23 24  1  0
 24 25  1  0
 25 26  1  0
 26 27  1  0
 12  7  1  0
 19 14  1  0
 27 22  1  0
  3 28  1  0
  3 29  1  0
  8 30  1  0
  9 31  1  0
 10 32  1  0
 11 33  1  0
 12 34  1  0
 13 35  1  0
 15 36  1  0
 16 37  1  0
 17 38  1  0
 18 39  1  0
 22 40  1  0
 23 41  1  0
 23 42  1  0
 25 43  1  0
 25 44  1  0
 26 45  1  0
 26 46  1  0
M  END
>  <Energy>  (922) 
148.19552127224361

>  <compound_id>  (922) 
2976

>  <target_id>  (922) 
1

>  <reference_id>  (922) 
190

>  <inspiration_ids>  (922) 
[190, 165]

>  <energy_score>  (922) 
-54.1295479065011

>  <distance_score>  (922) 
2.3974786200894598

>  <path>  (922) 
/opt/xchem-fragalysis-2/maxwin/BulkDock/SCRATCH/505736/C2976-P190/C2976-P190.minimised.mol

>  <scratch_subdir>  (922) 
/opt/xchem-fragalysis-2/maxwin/BulkDock/SCRATCH/505736/C2976-P190

>  <fragmenstein_runtime>  (922) 
8.860403776168823

>  <fragmenstein_outcome>  (922) 
too moved

>  <fragmenstein_mode>  (922) 
expansion

>  <fragmenstein_error>  (922) 


$$$$
C2976-P165
     RDKit          3D

 46 48  0  0  0  0  0  0  0  0999 V2000
    4.5114   -4.0647   31.6170 O   0  0  0  0  0  0  0  0  0  0  0  0
    3.4221   -3.8669   31.9994 C   0  0  0  0  0  0  0  0  0  0  0  0
    2.4449   -3.0684   31.2100 C   0  0  0  0  0  0  0  0  0  0  0  0
    1.2038   -4.0735   30.4824 S   0  0  0  0  0  0  0  0  0  0  0  0
    0.6341   -4.9503   31.4846 O   0  0  0  0  0  0  0  0  0  0  0  0
    1.6860   -4.5876   29.2158 O   0  0  0  0  0  0  0  0  0  0  0  0
    0.0039   -2.8038   30.1675 C   0  0  0  0  0  0  0  0  0  0  0  0
   -0.9107   -2.4818   31.1747 C   0  0  0  0  0  0  0  0  0  0  0  0
   -1.6918   -1.3436   31.0243 C   0  0  0  0  0  0  0  0  0  0  0  0
   -1.5732   -0.5646   29.8711 C   0  0  0  0  0  0  0  0  0  0  0  0
   -0.7065   -0.9246   28.8436 C   0  0  0  0  0  0  0  0  0  0  0  0
    0.1020   -2.0414   28.9990 C   0  0  0  0  0  0  0  0  0  0  0  0
    2.7444   -4.2338   33.3591 N   0  0  0  0  0  0  0  0  0  0  0  0
    3.2778   -4.8080   34.5065 C   0  0  0  0  0  0  0  0  0  0  0  0
    4.6509   -5.0830   34.5284 C   0  0  0  0  0  0  0  0  0  0  0  0
    5.2841   -5.4359   35.7077 C   0  0  0  0  0  0  0  0  0  0  0  0
    4.5396   -5.5256   36.8711 C   0  0  0  0  0  0  0  0  0  0  0  0
    3.1602   -5.3106   36.8537 C   0  0  0  0  0  0  0  0  0  0  0  0
    2.5060   -4.9642   35.6734 C   0  0  0  0  0  0  0  0  0  0  0  0
    1.0217   -4.7915   35.6774 C   0  0  0  0  0  0  0  0  0  0  0  0
    0.3844   -5.1959   34.7054 O   0  0  0  0  0  0  0  0  0  0  0  0
    0.3570   -4.0720   36.8607 C   0  0  0  0  0  0  0  0  0  0  0  0
   -1.0973   -3.7311   36.4985 C   0  0  0  0  0  0  0  0  0  0  0  0
   -1.7439   -2.9632   37.5261 O   0  0  0  0  0  0  0  0  0  0  0  0
   -1.3538   -3.3666   38.8468 C   0  0  0  0  0  0  0  0  0  0  0  0
   -0.7323   -4.7604   38.8838 C   0  0  0  0  0  0  0  0  0  0  0  0
    0.4448   -4.8360   38.0697 O   0  0  0  0  0  0  0  0  0  0  0  0
    2.9657   -2.5289   30.4126 H   0  0  0  0  0  0  0  0  0  0  0  0
    1.9823   -2.3278   31.8701 H   0  0  0  0  0  0  0  0  0  0  0  0
   -0.9904   -3.0766   32.0820 H   0  0  0  0  0  0  0  0  0  0  0  0
   -2.3931   -1.0555   31.8027 H   0  0  0  0  0  0  0  0  0  0  0  0
   -2.1697    0.3360   29.7638 H   0  0  0  0  0  0  0  0  0  0  0  0
   -0.6565   -0.3338   27.9313 H   0  0  0  0  0  0  0  0  0  0  0  0
    0.8048   -2.3047   28.2131 H   0  0  0  0  0  0  0  0  0  0  0  0
    1.7565   -3.9847   33.3261 H   0  0  0  0  0  0  0  0  0  0  0  0
    5.2661   -4.9811   33.6386 H   0  0  0  0  0  0  0  0  0  0  0  0
    6.3547   -5.6233   35.7213 H   0  0  0  0  0  0  0  0  0  0  0  0
    5.0286   -5.7991   37.8044 H   0  0  0  0  0  0  0  0  0  0  0  0
    2.6236   -5.4578   37.7861 H   0  0  0  0  0  0  0  0  0  0  0  0
    0.9005   -3.1343   37.0324 H   0  0  0  0  0  0  0  0  0  0  0  0
   -1.1504   -3.1495   35.5719 H   0  0  0  0  0  0  0  0  0  0  0  0
   -1.6827   -4.6451   36.3482 H   0  0  0  0  0  0  0  0  0  0  0  0
   -2.2380   -3.3161   39.4889 H   0  0  0  0  0  0  0  0  0  0  0  0
   -0.6316   -2.6248   39.2051 H   0  0  0  0  0  0  0  0  0  0  0  0
   -0.4493   -5.0286   39.9060 H   0  0  0  0  0  0  0  0  0  0  0  0
   -1.4319   -5.5176   38.5218 H   0  0  0  0  0  0  0  0  0  0  0  0
  1  2  2  0
  2  3  1  0
  3  4  1  0
  4  5  2  0
  4  6  2  0
  4  7  1  0
  7  8  2  0
  8  9  1  0
  9 10  2  0
 10 11  1  0
 11 12  2  0
  2 13  1  0
 13 14  1  0
 14 15  2  0
 15 16  1  0
 16 17  2  0
 17 18  1  0
 18 19  2  0
 19 20  1  0
 20 21  2  0
 20 22  1  0
 22 23  1  0
 23 24  1  0
 24 25  1  0
 25 26  1  0
 26 27  1  0
 12  7  1  0
 19 14  1  0
 27 22  1  0
  3 28  1  0
  3 29  1  0
  8 30  1  0
  9 31  1  0
 10 32  1  0
 11 33  1  0
 12 34  1  0
 13 35  1  0
 15 36  1  0
 16 37  1  0
 17 38  1  0
 18 39  1  0
 22 40  1  0
 23 41  1  0
 23 42  1  0
 25 43  1  0
 25 44  1  0
 26 45  1  0
 26 46  1  0
M  END
>  <Energy>  (923) 
147.27551902894604

>  <compound_id>  (923) 
2976

>  <target_id>  (923) 
1

>  <reference_id>  (923) 
165

>  <inspiration_ids>  (923) 
[190, 165]

>  <energy_score>  (923) 
-55.04955014979706

>  <distance_score>  (923) 
2.436964194065245

>  <path>  (923) 
/opt/xchem-fragalysis-2/maxwin/BulkDock/SCRATCH/505736/C2976-P165/C2976-P165.minimised.mol

>  <scratch_subdir>  (923) 
/opt/xchem-fragalysis-2/maxwin/BulkDock/SCRATCH/505736/C2976-P165

>  <fragmenstein_runtime>  (923) 
8.920734167098999

>  <fragmenstein_outcome>  (923) 
too moved

>  <fragmenstein_mode>  (923) 
expansion

>  <fragmenstein_error>  (923) 


$$$$
C149-P190
     RDKit          2D

  0  0  0  0  0  0  0  0  0  0999 V2000
M  END
>  <compound_id>  (924) 
149

>  <target_id>  (924) 
1

>  <reference_id>  (924) 
190

>  <inspiration_ids>  (924) 
[190, 167]

>  <energy_score>  (924) 
nan

>  <distance_score>  (924) 
nan

>  <path>  (924) 
/opt/xchem-fragalysis-2/maxwin/BulkDock/SCRATCH/505736/C149-P190/C149-P190.minimised.mol

>  <scratch_subdir>  (924) 
/opt/xchem-fragalysis-2/maxwin/BulkDock/SCRATCH/505736/C149-P190

>  <fragmenstein_runtime>  (924) 
0.2630312442779541

>  <fragmenstein_outcome>  (924) 
too distant

>  <fragmenstein_mode>  (924) 
expansion

>  <fragmenstein_error>  (924) 
DistanceError: hit0+hit1

$$$$
C2980-P190
     RDKit          3D

 54 55  0  0  0  0  0  0  0  0999 V2000
   -0.1024   -7.1211   36.1097 C   0  0  0  0  0  0  0  0  0  0  0  0
   -0.0503   -7.0899   34.6172 C   0  0  0  0  0  0  0  0  0  0  0  0
   -0.9394   -7.8365   33.8500 C   0  0  0  0  0  0  0  0  0  0  0  0
   -0.8910   -7.8113   32.4579 C   0  0  0  0  0  0  0  0  0  0  0  0
   -0.0504   -6.9072   31.8082 C   0  0  0  0  0  0  0  0  0  0  0  0
   -0.0744   -6.8051   30.3162 C   0  0  0  0  0  0  0  0  0  0  0  0
    0.7176   -6.0240   32.5864 C   0  0  0  0  0  0  0  0  0  0  0  0
    0.8619   -4.7055   32.1773 N   0  0  0  0  0  0  0  0  0  0  0  0
    1.7661   -4.0678   31.0331 C   0  0  0  0  0  0  0  0  0  0  0  0
    1.3823   -2.5805   30.8581 C   0  0  0  0  0  0  0  0  0  0  0  0
   -0.3578   -2.2439   31.1522 S   0  0  0  0  0  0  0  0  0  0  0  0
   -0.4824   -1.7436   32.5105 O   0  0  0  0  0  0  0  0  0  0  0  0
   -1.1902   -3.3660   30.7534 O   0  0  0  0  0  0  0  0  0  0  0  0
   -0.6614   -0.9172   30.0402 C   0  0  0  0  0  0  0  0  0  0  0  0
   -1.2769   -1.1737   28.8171 C   0  0  0  0  0  0  0  0  0  0  0  0
   -1.3959   -0.1377   27.8973 C   0  0  0  0  0  0  0  0  0  0  0  0
   -0.8970    1.1299   28.1910 C   0  0  0  0  0  0  0  0  0  0  0  0
   -0.2775    1.3681   29.4162 C   0  0  0  0  0  0  0  0  0  0  0  0
   -0.1761    0.3510   30.3595 C   0  0  0  0  0  0  0  0  0  0  0  0
    2.6070   -4.5831   30.3004 N   0  0  0  0  0  0  0  0  0  0  0  0
    3.4582   -3.7142   29.6852 N   0  0  0  0  0  0  0  0  0  0  0  0
    3.7429   -3.6701   28.2332 C   0  0  0  0  0  0  0  0  0  0  0  0
    3.6634   -2.1763   27.8479 C   0  0  0  0  0  0  0  0  0  0  0  0
    2.7133   -4.4537   27.4402 C   0  0  0  0  0  0  0  0  0  0  0  0
    5.1642   -4.1829   27.8793 C   0  0  0  0  0  0  0  0  0  0  0  0
    5.4425   -3.9608   26.4950 O   0  0  0  0  0  0  0  0  0  0  0  0
    0.7887   -6.1935   33.9730 C   0  0  0  0  0  0  0  0  0  0  0  0
   -0.8549   -6.4173   36.4767 H   0  0  0  0  0  0  0  0  0  0  0  0
    0.8678   -6.8573   36.5439 H   0  0  0  0  0  0  0  0  0  0  0  0
   -0.3451   -8.1277   36.4604 H   0  0  0  0  0  0  0  0  0  0  0  0
   -1.6871   -8.4459   34.3446 H   0  0  0  0  0  0  0  0  0  0  0  0
   -1.5654   -8.4540   31.8992 H   0  0  0  0  0  0  0  0  0  0  0  0
   -0.7561   -7.5426   29.8828 H   0  0  0  0  0  0  0  0  0  0  0  0
   -0.3999   -5.8152   29.9928 H   0  0  0  0  0  0  0  0  0  0  0  0
    0.9200   -6.9976   29.9074 H   0  0  0  0  0  0  0  0  0  0  0  0
    0.2174   -4.0077   32.5243 H   0  0  0  0  0  0  0  0  0  0  0  0
    1.5526   -2.2693   29.8273 H   0  0  0  0  0  0  0  0  0  0  0  0
    1.9747   -1.9601   31.5360 H   0  0  0  0  0  0  0  0  0  0  0  0
   -1.6489   -2.1616   28.5527 H   0  0  0  0  0  0  0  0  0  0  0  0
   -1.8793   -0.3218   26.9403 H   0  0  0  0  0  0  0  0  0  0  0  0
   -0.9990    1.9342   27.4660 H   0  0  0  0  0  0  0  0  0  0  0  0
    0.1125    2.3604   29.6342 H   0  0  0  0  0  0  0  0  0  0  0  0
    0.3056    0.5487   31.3138 H   0  0  0  0  0  0  0  0  0  0  0  0
    4.3490   -3.6812   30.1914 H   0  0  0  0  0  0  0  0  0  0  0  0
    4.3593   -1.5749   28.4456 H   0  0  0  0  0  0  0  0  0  0  0  0
    3.9210   -2.0121   26.7963 H   0  0  0  0  0  0  0  0  0  0  0  0
    2.6583   -1.7681   27.9965 H   0  0  0  0  0  0  0  0  0  0  0  0
    1.7051   -4.1300   27.7124 H   0  0  0  0  0  0  0  0  0  0  0  0
    2.7928   -5.5245   27.6598 H   0  0  0  0  0  0  0  0  0  0  0  0
    2.8529   -4.3336   26.3621 H   0  0  0  0  0  0  0  0  0  0  0  0
    5.9260   -3.6520   28.4612 H   0  0  0  0  0  0  0  0  0  0  0  0
    5.2567   -5.2549   28.0860 H   0  0  0  0  0  0  0  0  0  0  0  0
    6.3500   -4.2718   26.3125 H   0  0  0  0  0  0  0  0  0  0  0  0
    1.3659   -5.4860   34.5673 H   0  0  0  0  0  0  0  0  0  0  0  0
  1  2  1  0
  2  3  2  0
  3  4  1  0
  4  5  2  0
  5  6  1  0
  5  7  1  0
  7  8  1  0
  8  9  1  0
  9 10  1  0
 10 11  1  0
 11 12  2  0
 11 13  2  0
 11 14  1  0
 14 15  2  0
 15 16  1  0
 16 17  2  0
 17 18  1  0
 18 19  2  0
  9 20  2  3
 20 21  1  0
 21 22  1  0
 22 23  1  0
 22 24  1  0
 22 25  1  0
 25 26  1  0
  7 27  2  0
 27  2  1  0
 19 14  1  0
  1 28  1  0
  1 29  1  0
  1 30  1  0
  3 31  1  0
  4 32  1  0
  6 33  1  0
  6 34  1  0
  6 35  1  0
  8 36  1  0
 10 37  1  0
 10 38  1  0
 15 39  1  0
 16 40  1  0
 17 41  1  0
 18 42  1  0
 19 43  1  0
 21 44  1  0
 23 45  1  0
 23 46  1  0
 23 47  1  0
 24 48  1  0
 24 49  1  0
 24 50  1  0
 25 51  1  0
 25 52  1  0
 26 53  1  0
 27 54  1  0
M  END
>  <Energy>  (925) 
156.40509741995777

>  <compound_id>  (925) 
2980

>  <target_id>  (925) 
1

>  <reference_id>  (925) 
190

>  <inspiration_ids>  (925) 
[190, 177]

>  <energy_score>  (925) 
-17.768049967693287

>  <distance_score>  (925) 
1.358419904115451

>  <path>  (925) 
/opt/xchem-fragalysis-2/maxwin/BulkDock/SCRATCH/505736/C2980-P190/C2980-P190.minimised.mol

>  <scratch_subdir>  (925) 
/opt/xchem-fragalysis-2/maxwin/BulkDock/SCRATCH/505736/C2980-P190

>  <fragmenstein_runtime>  (925) 
124.10963296890259

>  <fragmenstein_outcome>  (925) 
too moved

>  <fragmenstein_mode>  (925) 
expansion

>  <fragmenstein_error>  (925) 


$$$$
C2980-P177
     RDKit          3D

 54 55  0  0  0  0  0  0  0  0999 V2000
    0.2048   -6.9013   36.2504 C   0  0  0  0  0  0  0  0  0  0  0  0
    0.0831   -6.9404   34.7622 C   0  0  0  0  0  0  0  0  0  0  0  0
   -1.0229   -7.5244   34.1593 C   0  0  0  0  0  0  0  0  0  0  0  0
   -1.1428   -7.5691   32.7719 C   0  0  0  0  0  0  0  0  0  0  0  0
   -0.2718   -6.8409   31.9653 C   0  0  0  0  0  0  0  0  0  0  0  0
   -0.5125   -6.8412   30.4884 C   0  0  0  0  0  0  0  0  0  0  0  0
    0.7334   -6.0848   32.5909 C   0  0  0  0  0  0  0  0  0  0  0  0
    0.8727   -4.7432   32.2390 N   0  0  0  0  0  0  0  0  0  0  0  0
    1.5948   -4.0695   30.9962 C   0  0  0  0  0  0  0  0  0  0  0  0
    1.2565   -2.5824   31.0055 C   0  0  0  0  0  0  0  0  0  0  0  0
   -0.4863   -2.3275   31.3811 S   0  0  0  0  0  0  0  0  0  0  0  0
   -0.5818   -1.9785   32.7878 O   0  0  0  0  0  0  0  0  0  0  0  0
   -1.3298   -3.3880   30.8608 O   0  0  0  0  0  0  0  0  0  0  0  0
   -0.7661   -0.8887   30.4346 C   0  0  0  0  0  0  0  0  0  0  0  0
   -1.3236   -1.0197   29.1674 C   0  0  0  0  0  0  0  0  0  0  0  0
   -1.3079    0.0826   28.3358 C   0  0  0  0  0  0  0  0  0  0  0  0
   -0.7173    1.2716   28.7661 C   0  0  0  0  0  0  0  0  0  0  0  0
   -0.1441    1.3767   30.0272 C   0  0  0  0  0  0  0  0  0  0  0  0
   -0.1994    0.3017   30.8902 C   0  0  0  0  0  0  0  0  0  0  0  0
    2.2676   -4.5669   30.0997 N   0  0  0  0  0  0  0  0  0  0  0  0
    3.0418   -3.6658   29.4330 N   0  0  0  0  0  0  0  0  0  0  0  0
    3.2661   -3.6051   27.9745 C   0  0  0  0  0  0  0  0  0  0  0  0
    3.5222   -2.1069   27.6801 C   0  0  0  0  0  0  0  0  0  0  0  0
    2.0309   -4.0219   27.1827 C   0  0  0  0  0  0  0  0  0  0  0  0
    4.5107   -4.4224   27.5449 C   0  0  0  0  0  0  0  0  0  0  0  0
    4.9219   -4.0683   26.2261 O   0  0  0  0  0  0  0  0  0  0  0  0
    0.9951   -6.2700   33.9596 C   0  0  0  0  0  0  0  0  0  0  0  0
   -0.4715   -6.1480   36.6662 H   0  0  0  0  0  0  0  0  0  0  0  0
    1.2270   -6.6590   36.5601 H   0  0  0  0  0  0  0  0  0  0  0  0
   -0.0353   -7.8766   36.6799 H   0  0  0  0  0  0  0  0  0  0  0  0
   -1.7851   -7.9906   34.7762 H   0  0  0  0  0  0  0  0  0  0  0  0
   -1.9661   -8.1233   32.3303 H   0  0  0  0  0  0  0  0  0  0  0  0
    0.0852   -7.5982   29.9860 H   0  0  0  0  0  0  0  0  0  0  0  0
   -1.5440   -7.1284   30.2852 H   0  0  0  0  0  0  0  0  0  0  0  0
   -0.3286   -5.8686   30.0297 H   0  0  0  0  0  0  0  0  0  0  0  0
    0.3332   -4.0431   32.7352 H   0  0  0  0  0  0  0  0  0  0  0  0
    1.4239   -2.1205   30.0311 H   0  0  0  0  0  0  0  0  0  0  0  0
    1.8526   -2.0674   31.7640 H   0  0  0  0  0  0  0  0  0  0  0  0
   -1.7246   -1.9646   28.8053 H   0  0  0  0  0  0  0  0  0  0  0  0
   -1.7410    0.0036   27.3454 H   0  0  0  0  0  0  0  0  0  0  0  0
   -0.6854    2.1368   28.1196 H   0  0  0  0  0  0  0  0  0  0  0  0
    0.3332    2.3068   30.3274 H   0  0  0  0  0  0  0  0  0  0  0  0
    0.2570    0.3751   31.8742 H   0  0  0  0  0  0  0  0  0  0  0  0
    3.9522   -3.5700   29.8946 H   0  0  0  0  0  0  0  0  0  0  0  0
    4.4283   -1.7500   28.1842 H   0  0  0  0  0  0  0  0  0  0  0  0
    3.6434   -1.9187   26.6069 H   0  0  0  0  0  0  0  0  0  0  0  0
    2.6857   -1.4825   28.0172 H   0  0  0  0  0  0  0  0  0  0  0  0
    1.1510   -3.4321   27.4664 H   0  0  0  0  0  0  0  0  0  0  0  0
    1.7930   -5.0757   27.3602 H   0  0  0  0  0  0  0  0  0  0  0  0
    2.1856   -3.8830   26.1075 H   0  0  0  0  0  0  0  0  0  0  0  0
    5.3570   -4.2222   28.2118 H   0  0  0  0  0  0  0  0  0  0  0  0
    4.2999   -5.4972   27.5729 H   0  0  0  0  0  0  0  0  0  0  0  0
    5.6730   -4.6397   25.9846 H   0  0  0  0  0  0  0  0  0  0  0  0
    1.7695   -5.6684   34.4356 H   0  0  0  0  0  0  0  0  0  0  0  0
  1  2  1  0
  2  3  2  0
  3  4  1  0
  4  5  2  0
  5  6  1  0
  5  7  1  0
  7  8  1  0
  8  9  1  0
  9 10  1  0
 10 11  1  0
 11 12  2  0
 11 13  2  0
 11 14  1  0
 14 15  2  0
 15 16  1  0
 16 17  2  0
 17 18  1  0
 18 19  2  0
  9 20  2  3
 20 21  1  0
 21 22  1  0
 22 23  1  0
 22 24  1  0
 22 25  1  0
 25 26  1  0
  7 27  2  0
 27  2  1  0
 19 14  1  0
  1 28  1  0
  1 29  1  0
  1 30  1  0
  3 31  1  0
  4 32  1  0
  6 33  1  0
  6 34  1  0
  6 35  1  0
  8 36  1  0
 10 37  1  0
 10 38  1  0
 15 39  1  0
 16 40  1  0
 17 41  1  0
 18 42  1  0
 19 43  1  0
 21 44  1  0
 23 45  1  0
 23 46  1  0
 23 47  1  0
 24 48  1  0
 24 49  1  0
 24 50  1  0
 25 51  1  0
 25 52  1  0
 26 53  1  0
 27 54  1  0
M  END
>  <Energy>  (926) 
165.52205731857464

>  <compound_id>  (926) 
2980

>  <target_id>  (926) 
1

>  <reference_id>  (926) 
177

>  <inspiration_ids>  (926) 
[190, 177]

>  <energy_score>  (926) 
-8.651090069077327

>  <distance_score>  (926) 
1.2293835305359309

>  <path>  (926) 
/opt/xchem-fragalysis-2/maxwin/BulkDock/SCRATCH/505736/C2980-P177/C2980-P177.minimised.mol

>  <scratch_subdir>  (926) 
/opt/xchem-fragalysis-2/maxwin/BulkDock/SCRATCH/505736/C2980-P177

>  <fragmenstein_runtime>  (926) 
122.92878770828247

>  <fragmenstein_outcome>  (926) 
too moved

>  <fragmenstein_mode>  (926) 
expansion

>  <fragmenstein_error>  (926) 


$$$$
C149-P190
     RDKit          3D

 35 36  0  0  0  0  0  0  0  0999 V2000
   -0.2636   -5.9956   35.2211 C   0  0  0  0  0  0  0  0  0  0  0  0
   -0.3076   -6.7168   33.9092 C   0  0  0  0  0  0  0  0  0  0  0  0
   -1.2132   -7.7540   33.7181 C   0  0  0  0  0  0  0  0  0  0  0  0
   -1.3351   -8.3717   32.4699 C   0  0  0  0  0  0  0  0  0  0  0  0
   -0.4904   -8.0586   31.4235 C   0  0  0  0  0  0  0  0  0  0  0  0
    0.4219   -7.0438   31.6019 C   0  0  0  0  0  0  0  0  0  0  0  0
    0.4508   -6.3275   32.8076 C   0  0  0  0  0  0  0  0  0  0  0  0
    0.7338   -5.0039   32.5918 N   0  0  0  0  0  0  0  0  0  0  0  0
    1.8054   -4.3340   31.6785 C   0  0  0  0  0  0  0  0  0  0  0  0
    2.6575   -4.8113   31.0342 O   0  0  0  0  0  0  0  0  0  0  0  0
    1.4816   -2.8694   31.6779 C   0  0  0  0  0  0  0  0  0  0  0  0
   -0.1312   -2.9198   30.8586 S   0  0  0  0  0  0  0  0  0  0  0  0
   -1.1463   -3.1022   31.8840 O   0  0  0  0  0  0  0  0  0  0  0  0
   -0.0474   -3.8285   29.7309 O   0  0  0  0  0  0  0  0  0  0  0  0
   -0.4352   -1.3484   30.1797 C   0  0  0  0  0  0  0  0  0  0  0  0
    0.0267   -0.1953   30.7984 C   0  0  0  0  0  0  0  0  0  0  0  0
   -0.1294    1.0108   30.1191 C   0  0  0  0  0  0  0  0  0  0  0  0
   -0.7703    1.0537   28.8748 C   0  0  0  0  0  0  0  0  0  0  0  0
   -1.2623   -0.1078   28.2939 C   0  0  0  0  0  0  0  0  0  0  0  0
   -1.0976   -1.3130   28.9496 C   0  0  0  0  0  0  0  0  0  0  0  0
    0.7591   -5.6770   35.4492 H   0  0  0  0  0  0  0  0  0  0  0  0
   -0.5881   -6.6463   36.0402 H   0  0  0  0  0  0  0  0  0  0  0  0
   -0.9115   -5.1151   35.1955 H   0  0  0  0  0  0  0  0  0  0  0  0
   -1.8628   -8.0728   34.5293 H   0  0  0  0  0  0  0  0  0  0  0  0
   -2.0893   -9.1269   32.3220 H   0  0  0  0  0  0  0  0  0  0  0  0
   -0.5490   -8.5762   30.4724 H   0  0  0  0  0  0  0  0  0  0  0  0
    0.9670   -6.6985   30.7260 H   0  0  0  0  0  0  0  0  0  0  0  0
    0.1966   -4.2835   33.0720 H   0  0  0  0  0  0  0  0  0  0  0  0
    1.4001   -2.4394   32.6759 H   0  0  0  0  0  0  0  0  0  0  0  0
    2.1884   -2.3271   31.0472 H   0  0  0  0  0  0  0  0  0  0  0  0
    0.5221   -0.2071   31.7625 H   0  0  0  0  0  0  0  0  0  0  0  0
    0.2465    1.9348   30.5540 H   0  0  0  0  0  0  0  0  0  0  0  0
   -0.8948    2.0057   28.3613 H   0  0  0  0  0  0  0  0  0  0  0  0
   -1.7583   -0.0788   27.3256 H   0  0  0  0  0  0  0  0  0  0  0  0
   -1.4664   -2.2205   28.4708 H   0  0  0  0  0  0  0  0  0  0  0  0
  1  2  1  0
  2  3  2  0
  3  4  1  0
  4  5  2  0
  5  6  1  0
  6  7  2  0
  7  8  1  0
  8  9  1  0
  9 10  2  0
  9 11  1  0
 11 12  1  0
 12 13  2  0
 12 14  2  0
 12 15  1  0
 15 16  2  0
 16 17  1  0
 17 18  2  0
 18 19  1  0
 19 20  2  0
  7  2  1  0
 20 15  1  0
  1 21  1  0
  1 22  1  0
  1 23  1  0
  3 24  1  0
  4 25  1  0
  5 26  1  0
  6 27  1  0
  8 28  1  0
 11 29  1  0
 11 30  1  0
 16 31  1  0
 17 32  1  0
 18 33  1  0
 19 34  1  0
 20 35  1  0
M  END
>  <Energy>  (927) 
68.314324074333229

>  <compound_id>  (927) 
149

>  <target_id>  (927) 
1

>  <reference_id>  (927) 
190

>  <inspiration_ids>  (927) 
[190, 180]

>  <energy_score>  (927) 
19.69688027847667

>  <distance_score>  (927) 
1.788543362658037

>  <path>  (927) 
/opt/xchem-fragalysis-2/maxwin/BulkDock/SCRATCH/505736/C149-P190/C149-P190.minimised.mol

>  <scratch_subdir>  (927) 
/opt/xchem-fragalysis-2/maxwin/BulkDock/SCRATCH/505736/C149-P190

>  <fragmenstein_runtime>  (927) 
14.415962219238281

>  <fragmenstein_outcome>  (927) 
too moved

>  <fragmenstein_mode>  (927) 
expansion

>  <fragmenstein_error>  (927) 


$$$$
C149-P180
     RDKit          3D

 35 36  0  0  0  0  0  0  0  0999 V2000
   -0.2668   -5.9201   35.2536 C   0  0  0  0  0  0  0  0  0  0  0  0
   -0.2553   -6.6462   33.9437 C   0  0  0  0  0  0  0  0  0  0  0  0
   -1.1979   -7.6390   33.7019 C   0  0  0  0  0  0  0  0  0  0  0  0
   -1.2899   -8.2395   32.4442 C   0  0  0  0  0  0  0  0  0  0  0  0
   -0.3723   -7.9675   31.4478 C   0  0  0  0  0  0  0  0  0  0  0  0
    0.5954   -7.0149   31.6858 C   0  0  0  0  0  0  0  0  0  0  0  0
    0.5766   -6.2861   32.8843 C   0  0  0  0  0  0  0  0  0  0  0  0
    0.8384   -4.9593   32.6503 N   0  0  0  0  0  0  0  0  0  0  0  0
    1.9215   -4.2840   31.7540 C   0  0  0  0  0  0  0  0  0  0  0  0
    2.8013   -4.7552   31.1432 O   0  0  0  0  0  0  0  0  0  0  0  0
    1.5646   -2.8260   31.7177 C   0  0  0  0  0  0  0  0  0  0  0  0
   -0.0329   -2.9268   30.8686 S   0  0  0  0  0  0  0  0  0  0  0  0
   -1.0604   -3.1225   31.8799 O   0  0  0  0  0  0  0  0  0  0  0  0
    0.0965   -3.8475   29.7552 O   0  0  0  0  0  0  0  0  0  0  0  0
   -0.3555   -1.3682   30.1688 C   0  0  0  0  0  0  0  0  0  0  0  0
   -0.0286   -0.2004   30.8445 C   0  0  0  0  0  0  0  0  0  0  0  0
   -0.2216    1.0083   30.1796 C   0  0  0  0  0  0  0  0  0  0  0  0
   -0.7688    1.0378   28.8917 C   0  0  0  0  0  0  0  0  0  0  0  0
   -1.1162   -0.1421   28.2460 C   0  0  0  0  0  0  0  0  0  0  0  0
   -0.9117   -1.3496   28.8870 C   0  0  0  0  0  0  0  0  0  0  0  0
    0.7328   -5.5453   35.4977 H   0  0  0  0  0  0  0  0  0  0  0  0
   -0.5690   -6.5873   36.0681 H   0  0  0  0  0  0  0  0  0  0  0  0
   -0.9621   -5.0761   35.2127 H   0  0  0  0  0  0  0  0  0  0  0  0
   -1.9013   -7.9283   34.4784 H   0  0  0  0  0  0  0  0  0  0  0  0
   -2.0768   -8.9495   32.2514 H   0  0  0  0  0  0  0  0  0  0  0  0
   -0.4190   -8.4661   30.4853 H   0  0  0  0  0  0  0  0  0  0  0  0
    1.2097   -6.7034   30.8442 H   0  0  0  0  0  0  0  0  0  0  0  0
    0.2730   -4.2416   33.1011 H   0  0  0  0  0  0  0  0  0  0  0  0
    1.4545   -2.3790   32.7054 H   0  0  0  0  0  0  0  0  0  0  0  0
    2.2698   -2.2791   31.0891 H   0  0  0  0  0  0  0  0  0  0  0  0
    0.3813   -0.2026   31.8481 H   0  0  0  0  0  0  0  0  0  0  0  0
    0.0477    1.9456   30.6615 H   0  0  0  0  0  0  0  0  0  0  0  0
   -0.9370    1.9930   28.3964 H   0  0  0  0  0  0  0  0  0  0  0  0
   -1.5448   -0.1228   27.2459 H   0  0  0  0  0  0  0  0  0  0  0  0
   -1.1852   -2.2677   28.3659 H   0  0  0  0  0  0  0  0  0  0  0  0
  1  2  1  0
  2  3  2  0
  3  4  1  0
  4  5  2  0
  5  6  1  0
  6  7  2  0
  7  8  1  0
  8  9  1  0
  9 10  2  0
  9 11  1  0
 11 12  1  0
 12 13  2  0
 12 14  2  0
 12 15  1  0
 15 16  2  0
 16 17  1  0
 17 18  2  0
 18 19  1  0
 19 20  2  0
  7  2  1  0
 20 15  1  0
  1 21  1  0
  1 22  1  0
  1 23  1  0
  3 24  1  0
  4 25  1  0
  5 26  1  0
  6 27  1  0
  8 28  1  0
 11 29  1  0
 11 30  1  0
 16 31  1  0
 17 32  1  0
 18 33  1  0
 19 34  1  0
 20 35  1  0
M  END
>  <Energy>  (928) 
70.489800700763396

>  <compound_id>  (928) 
149

>  <target_id>  (928) 
1

>  <reference_id>  (928) 
180

>  <inspiration_ids>  (928) 
[190, 180]

>  <energy_score>  (928) 
21.872356904908315

>  <distance_score>  (928) 
1.7987031938106843

>  <path>  (928) 
/opt/xchem-fragalysis-2/maxwin/BulkDock/SCRATCH/505736/C149-P180/C149-P180.minimised.mol

>  <scratch_subdir>  (928) 
/opt/xchem-fragalysis-2/maxwin/BulkDock/SCRATCH/505736/C149-P180

>  <fragmenstein_runtime>  (928) 
14.490222692489624

>  <fragmenstein_outcome>  (928) 
too moved

>  <fragmenstein_mode>  (928) 
expansion

>  <fragmenstein_error>  (928) 


$$$$
C149-P190
     RDKit          3D

 35 36  0  0  0  0  0  0  0  0999 V2000
   -0.5095   -7.5153   31.2661 C   0  0  0  0  0  0  0  0  0  0  0  0
   -0.3095   -7.1104   32.6969 C   0  0  0  0  0  0  0  0  0  0  0  0
   -1.0833   -7.7600   33.6542 C   0  0  0  0  0  0  0  0  0  0  0  0
   -0.9521   -7.4698   35.0087 C   0  0  0  0  0  0  0  0  0  0  0  0
   -0.0899   -6.4718   35.4337 C   0  0  0  0  0  0  0  0  0  0  0  0
    0.6563   -5.7723   34.4944 C   0  0  0  0  0  0  0  0  0  0  0  0
    0.5617   -6.0958   33.1364 C   0  0  0  0  0  0  0  0  0  0  0  0
    1.3175   -5.3847   32.2162 N   0  0  0  0  0  0  0  0  0  0  0  0
    2.1959   -4.1055   32.3977 C   0  0  0  0  0  0  0  0  0  0  0  0
    2.4742   -3.5070   33.3662 O   0  0  0  0  0  0  0  0  0  0  0  0
    2.8061   -3.7190   31.0791 C   0  0  0  0  0  0  0  0  0  0  0  0
    1.6972   -3.7171   29.7285 S   0  0  0  0  0  0  0  0  0  0  0  0
    2.4739   -3.2975   28.5735 O   0  0  0  0  0  0  0  0  0  0  0  0
    1.0465   -5.0168   29.6861 O   0  0  0  0  0  0  0  0  0  0  0  0
    0.4528   -2.4916   30.0190 C   0  0  0  0  0  0  0  0  0  0  0  0
   -0.4999   -2.6707   31.0256 C   0  0  0  0  0  0  0  0  0  0  0  0
   -1.5127   -1.7264   31.1779 C   0  0  0  0  0  0  0  0  0  0  0  0
   -1.5913   -0.6360   30.3106 C   0  0  0  0  0  0  0  0  0  0  0  0
   -0.6628   -0.4728   29.2875 C   0  0  0  0  0  0  0  0  0  0  0  0
    0.3695   -1.3938   29.1485 C   0  0  0  0  0  0  0  0  0  0  0  0
    0.4492   -7.6582   30.7619 H   0  0  0  0  0  0  0  0  0  0  0  0
   -1.0766   -6.7479   30.7395 H   0  0  0  0  0  0  0  0  0  0  0  0
   -1.0487   -8.4642   31.1874 H   0  0  0  0  0  0  0  0  0  0  0  0
   -1.7879   -8.5321   33.3546 H   0  0  0  0  0  0  0  0  0  0  0  0
   -1.5189   -8.0488   35.7286 H   0  0  0  0  0  0  0  0  0  0  0  0
    0.0015   -6.2358   36.4905 H   0  0  0  0  0  0  0  0  0  0  0  0
    1.3181   -4.9877   34.8493 H   0  0  0  0  0  0  0  0  0  0  0  0
    1.3528   -5.6877   31.2426 H   0  0  0  0  0  0  0  0  0  0  0  0
    3.2328   -2.7135   31.1521 H   0  0  0  0  0  0  0  0  0  0  0  0
    3.6135   -4.4215   30.8503 H   0  0  0  0  0  0  0  0  0  0  0  0
   -0.4913   -3.5332   31.6833 H   0  0  0  0  0  0  0  0  0  0  0  0
   -2.2540   -1.8467   31.9647 H   0  0  0  0  0  0  0  0  0  0  0  0
   -2.3887    0.0929   30.4266 H   0  0  0  0  0  0  0  0  0  0  0  0
   -0.7486    0.3633   28.5973 H   0  0  0  0  0  0  0  0  0  0  0  0
    1.0762   -1.2677   28.3306 H   0  0  0  0  0  0  0  0  0  0  0  0
  1  2  1  0
  2  3  2  0
  3  4  1  0
  4  5  2  0
  5  6  1  0
  6  7  2  0
  7  8  1  0
  8  9  1  0
  9 10  2  0
  9 11  1  0
 11 12  1  0
 12 13  2  0
 12 14  2  0
 12 15  1  0
 15 16  2  0
 16 17  1  0
 17 18  2  0
 18 19  1  0
 19 20  2  0
  7  2  1  0
 20 15  1  0
  1 21  1  0
  1 22  1  0
  1 23  1  0
  3 24  1  0
  4 25  1  0
  5 26  1  0
  6 27  1  0
  8 28  1  0
 11 29  1  0
 11 30  1  0
 16 31  1  0
 17 32  1  0
 18 33  1  0
 19 34  1  0
 20 35  1  0
M  END
>  <Energy>  (929) 
40.512557667694772

>  <compound_id>  (929) 
149

>  <target_id>  (929) 
1

>  <reference_id>  (929) 
190

>  <inspiration_ids>  (929) 
[190, 183]

>  <energy_score>  (929) 
-23.90542674079171

>  <distance_score>  (929) 
2.074015052304354

>  <path>  (929) 
/opt/xchem-fragalysis-2/maxwin/BulkDock/SCRATCH/505736/C149-P190/C149-P190.minimised.mol

>  <scratch_subdir>  (929) 
/opt/xchem-fragalysis-2/maxwin/BulkDock/SCRATCH/505736/C149-P190

>  <fragmenstein_runtime>  (929) 
11.868761539459229

>  <fragmenstein_outcome>  (929) 
too moved

>  <fragmenstein_mode>  (929) 
expansion

>  <fragmenstein_error>  (929) 


$$$$
C149-P183
     RDKit          3D

 35 36  0  0  0  0  0  0  0  0999 V2000
   -0.5213   -7.3851   31.3483 C   0  0  0  0  0  0  0  0  0  0  0  0
   -0.3109   -7.0035   32.7845 C   0  0  0  0  0  0  0  0  0  0  0  0
   -1.0825   -7.6606   33.7394 C   0  0  0  0  0  0  0  0  0  0  0  0
   -0.9483   -7.3863   35.0986 C   0  0  0  0  0  0  0  0  0  0  0  0
   -0.0813   -6.3954   35.5299 C   0  0  0  0  0  0  0  0  0  0  0  0
    0.6682   -5.6925   34.5959 C   0  0  0  0  0  0  0  0  0  0  0  0
    0.5712   -6.0039   33.2350 C   0  0  0  0  0  0  0  0  0  0  0  0
    1.3485   -5.2949   32.3308 N   0  0  0  0  0  0  0  0  0  0  0  0
    2.1114   -3.9398   32.4926 C   0  0  0  0  0  0  0  0  0  0  0  0
    2.2604   -3.2605   33.4360 O   0  0  0  0  0  0  0  0  0  0  0  0
    2.7841   -3.5786   31.1978 C   0  0  0  0  0  0  0  0  0  0  0  0
    1.7462   -3.6758   29.7957 S   0  0  0  0  0  0  0  0  0  0  0  0
    2.5478   -3.2358   28.6659 O   0  0  0  0  0  0  0  0  0  0  0  0
    1.1852   -5.0174   29.7615 O   0  0  0  0  0  0  0  0  0  0  0  0
    0.4118   -2.5291   30.0023 C   0  0  0  0  0  0  0  0  0  0  0  0
   -0.5768   -2.7560   30.9649 C   0  0  0  0  0  0  0  0  0  0  0  0
   -1.6605   -1.8846   31.0486 C   0  0  0  0  0  0  0  0  0  0  0  0
   -1.7725   -0.8202   30.1553 C   0  0  0  0  0  0  0  0  0  0  0  0
   -0.8032   -0.6061   29.1795 C   0  0  0  0  0  0  0  0  0  0  0  0
    0.2983   -1.4533   29.1091 C   0  0  0  0  0  0  0  0  0  0  0  0
   -1.0248   -6.5749   30.8198 H   0  0  0  0  0  0  0  0  0  0  0  0
   -1.1285   -8.2900   31.2527 H   0  0  0  0  0  0  0  0  0  0  0  0
    0.4331   -7.5894   30.8582 H   0  0  0  0  0  0  0  0  0  0  0  0
   -1.7850   -8.4328   33.4357 H   0  0  0  0  0  0  0  0  0  0  0  0
   -1.5065   -7.9765   35.8206 H   0  0  0  0  0  0  0  0  0  0  0  0
    0.0151   -6.1755   36.5896 H   0  0  0  0  0  0  0  0  0  0  0  0
    1.3406   -4.9188   34.9554 H   0  0  0  0  0  0  0  0  0  0  0  0
    1.3489   -5.5719   31.3486 H   0  0  0  0  0  0  0  0  0  0  0  0
    3.6318   -4.2520   31.0410 H   0  0  0  0  0  0  0  0  0  0  0  0
    3.1635   -2.5532   31.2536 H   0  0  0  0  0  0  0  0  0  0  0  0
   -0.5438   -3.6044   31.6392 H   0  0  0  0  0  0  0  0  0  0  0  0
   -2.4299   -2.0427   31.8007 H   0  0  0  0  0  0  0  0  0  0  0  0
   -2.6235   -0.1497   30.2188 H   0  0  0  0  0  0  0  0  0  0  0  0
   -0.9134    0.2087   28.4673 H   0  0  0  0  0  0  0  0  0  0  0  0
    1.0320   -1.2930   28.3214 H   0  0  0  0  0  0  0  0  0  0  0  0
  1  2  1  0
  2  3  2  0
  3  4  1  0
  4  5  2  0
  5  6  1  0
  6  7  2  0
  7  8  1  0
  8  9  1  0
  9 10  2  0
  9 11  1  0
 11 12  1  0
 12 13  2  0
 12 14  2  0
 12 15  1  0
 15 16  2  0
 16 17  1  0
 17 18  2  0
 18 19  1  0
 19 20  2  0
  7  2  1  0
 20 15  1  0
  1 21  1  0
  1 22  1  0
  1 23  1  0
  3 24  1  0
  4 25  1  0
  5 26  1  0
  6 27  1  0
  8 28  1  0
 11 29  1  0
 11 30  1  0
 16 31  1  0
 17 32  1  0
 18 33  1  0
 19 34  1  0
 20 35  1  0
M  END
>  <Energy>  (930) 
40.400262547014052

>  <compound_id>  (930) 
149

>  <target_id>  (930) 
1

>  <reference_id>  (930) 
183

>  <inspiration_ids>  (930) 
[190, 183]

>  <energy_score>  (930) 
-24.01772186147312

>  <distance_score>  (930) 
2.0634429579361346

>  <path>  (930) 
/opt/xchem-fragalysis-2/maxwin/BulkDock/SCRATCH/505736/C149-P183/C149-P183.minimised.mol

>  <scratch_subdir>  (930) 
/opt/xchem-fragalysis-2/maxwin/BulkDock/SCRATCH/505736/C149-P183

>  <fragmenstein_runtime>  (930) 
12.208706378936768

>  <fragmenstein_outcome>  (930) 
too moved

>  <fragmenstein_mode>  (930) 
expansion

>  <fragmenstein_error>  (930) 


$$$$
C2981-P190
     RDKit          3D

 52 54  0  0  0  0  0  0  0  0999 V2000
   -0.1284   -5.2535   36.7127 C   0  0  0  0  0  0  0  0  0  0  0  0
    0.4371   -4.7284   35.3980 C   0  0  0  0  0  0  0  0  0  0  0  0
    0.6814   -5.7798   34.4306 N   0  0  0  0  0  0  0  0  0  0  0  0
   -0.5506   -6.1384   33.7276 C   0  0  0  0  0  0  0  0  0  0  0  0
   -0.1725   -7.1483   32.6629 C   0  0  0  0  0  0  0  0  0  0  0  0
   -1.4315   -7.8579   32.1818 C   0  0  0  0  0  0  0  0  0  0  0  0
   -1.0070   -8.8983   31.1929 C   0  0  0  0  0  0  0  0  0  0  0  0
   -0.3947   -8.2922   29.9358 C   0  0  0  0  0  0  0  0  0  0  0  0
    0.5504   -7.2032   30.2650 C   0  0  0  0  0  0  0  0  0  0  0  0
    0.6263   -6.6581   31.4815 C   0  0  0  0  0  0  0  0  0  0  0  0
    1.5179   -5.4619   31.4150 C   0  0  0  0  0  0  0  0  0  0  0  0
    0.6273   -4.3657   31.4466 O   0  0  0  0  0  0  0  0  0  0  0  0
    1.3176   -3.0917   31.4308 N   0  0  0  0  0  0  0  0  0  0  0  0
    0.4498   -2.3018   32.3182 C   0  0  0  0  0  0  0  0  0  0  0  0
   -1.2769   -2.0198   31.8688 S   0  0  0  0  0  0  0  0  0  0  0  0
   -1.9563   -3.2647   31.5354 O   0  0  0  0  0  0  0  0  0  0  0  0
   -1.8435   -1.1435   32.8805 O   0  0  0  0  0  0  0  0  0  0  0  0
   -1.1190   -1.0429   30.3989 C   0  0  0  0  0  0  0  0  0  0  0  0
   -1.4859   -1.5697   29.1680 C   0  0  0  0  0  0  0  0  0  0  0  0
   -1.4645   -0.7397   28.0520 C   0  0  0  0  0  0  0  0  0  0  0  0
   -1.0108    0.5736   28.1415 C   0  0  0  0  0  0  0  0  0  0  0  0
   -0.5963    1.0769   29.3674 C   0  0  0  0  0  0  0  0  0  0  0  0
   -0.6751    0.2801   30.5083 C   0  0  0  0  0  0  0  0  0  0  0  0
    2.1340   -5.5186   29.9967 C   0  0  0  0  0  0  0  0  0  0  0  0
    1.4349   -6.6399   29.3579 N   0  0  0  0  0  0  0  0  0  0  0  0
   -1.1187   -5.6968   36.5757 H   0  0  0  0  0  0  0  0  0  0  0  0
   -0.2274   -4.4337   37.4316 H   0  0  0  0  0  0  0  0  0  0  0  0
    0.5295   -6.0090   37.1551 H   0  0  0  0  0  0  0  0  0  0  0  0
   -0.2260   -3.9513   35.0043 H   0  0  0  0  0  0  0  0  0  0  0  0
    1.3940   -4.2386   35.6112 H   0  0  0  0  0  0  0  0  0  0  0  0
    1.0442   -6.5998   34.9169 H   0  0  0  0  0  0  0  0  0  0  0  0
   -1.2645   -6.5783   34.4333 H   0  0  0  0  0  0  0  0  0  0  0  0
   -1.0205   -5.2611   33.2721 H   0  0  0  0  0  0  0  0  0  0  0  0
    0.4516   -7.8994   33.1625 H   0  0  0  0  0  0  0  0  0  0  0  0
   -2.1058   -7.1587   31.7007 H   0  0  0  0  0  0  0  0  0  0  0  0
   -1.9491   -8.3306   33.0221 H   0  0  0  0  0  0  0  0  0  0  0  0
   -0.2765   -9.4764   31.6964 H   0  0  0  0  0  0  0  0  0  0  0  0
   -1.7840   -9.6250   31.0267 H   0  0  0  0  0  0  0  0  0  0  0  0
    0.0806   -9.0627   29.3250 H   0  0  0  0  0  0  0  0  0  0  0  0
   -1.1821   -7.8154   29.3516 H   0  0  0  0  0  0  0  0  0  0  0  0
    2.2739   -5.4253   32.2053 H   0  0  0  0  0  0  0  0  0  0  0  0
    2.1757   -3.2576   31.9612 H   0  0  0  0  0  0  0  0  0  0  0  0
    0.4248   -2.7544   33.3123 H   0  0  0  0  0  0  0  0  0  0  0  0
    0.8988   -1.3112   32.4489 H   0  0  0  0  0  0  0  0  0  0  0  0
   -1.8406   -2.5917   29.0646 H   0  0  0  0  0  0  0  0  0  0  0  0
   -1.8441   -1.1122   27.1075 H   0  0  0  0  0  0  0  0  0  0  0  0
   -1.0069    1.2071   27.2588 H   0  0  0  0  0  0  0  0  0  0  0  0
   -0.2458    2.1041   29.4345 H   0  0  0  0  0  0  0  0  0  0  0  0
   -0.4002    0.7014   31.4715 H   0  0  0  0  0  0  0  0  0  0  0  0
    3.2047   -5.7352   30.0329 H   0  0  0  0  0  0  0  0  0  0  0  0
    1.9890   -4.6062   29.4088 H   0  0  0  0  0  0  0  0  0  0  0  0
    0.9603   -6.3398   28.5042 H   0  0  0  0  0  0  0  0  0  0  0  0
  1  2  1  0
  2  3  1  0
  3  4  1  0
  4  5  1  0
  5  6  1  0
  6  7  1  0
  7  8  1  0
  8  9  1  0
  9 10  2  0
 10 11  1  0
 11 12  1  0
 12 13  1  0
 13 14  1  0
 14 15  1  0
 15 16  2  0
 15 17  2  0
 15 18  1  0
 18 19  2  0
 19 20  1  0
 20 21  2  0
 21 22  1  0
 22 23  2  0
 11 24  1  0
 24 25  1  0
 10  5  1  0
 23 18  1  0
 25  9  1  0
  1 26  1  0
  1 27  1  0
  1 28  1  0
  2 29  1  0
  2 30  1  0
  3 31  1  0
  4 32  1  0
  4 33  1  0
  5 34  1  0
  6 35  1  0
  6 36  1  0
  7 37  1  0
  7 38  1  0
  8 39  1  0
  8 40  1  0
 11 41  1  0
 13 42  1  0
 14 43  1  0
 14 44  1  0
 19 45  1  0
 20 46  1  0
 21 47  1  0
 22 48  1  0
 23 49  1  0
 24 50  1  0
 24 51  1  0
 25 52  1  0
M  END
>  <Energy>  (931) 
201.48975266245202

>  <compound_id>  (931) 
2981

>  <target_id>  (931) 
1

>  <reference_id>  (931) 
190

>  <inspiration_ids>  (931) 
[190, 186]

>  <energy_score>  (931) 
-60.73493075403627

>  <distance_score>  (931) 
1.8286987377275068

>  <path>  (931) 
/opt/xchem-fragalysis-2/maxwin/BulkDock/SCRATCH/505736/C2981-P190/C2981-P190.minimised.mol

>  <scratch_subdir>  (931) 
/opt/xchem-fragalysis-2/maxwin/BulkDock/SCRATCH/505736/C2981-P190

>  <fragmenstein_runtime>  (931) 
6.258844375610352

>  <fragmenstein_outcome>  (931) 
too moved

>  <fragmenstein_mode>  (931) 
expansion

>  <fragmenstein_error>  (931) 


$$$$
C2981-P186
     RDKit          3D

 52 54  0  0  0  0  0  0  0  0999 V2000
    1.7106   -6.3085   36.3827 C   0  0  0  0  0  0  0  0  0  0  0  0
    0.7801   -6.8974   35.3318 C   0  0  0  0  0  0  0  0  0  0  0  0
    0.2038   -5.8215   34.5448 N   0  0  0  0  0  0  0  0  0  0  0  0
   -0.8951   -6.2557   33.6840 C   0  0  0  0  0  0  0  0  0  0  0  0
   -0.4175   -7.1124   32.5268 C   0  0  0  0  0  0  0  0  0  0  0  0
   -1.5657   -7.9503   31.9573 C   0  0  0  0  0  0  0  0  0  0  0  0
   -0.9366   -8.9404   31.0208 C   0  0  0  0  0  0  0  0  0  0  0  0
   -0.2640   -8.2937   29.8255 C   0  0  0  0  0  0  0  0  0  0  0  0
    0.4589   -7.0495   30.1983 C   0  0  0  0  0  0  0  0  0  0  0  0
    0.3379   -6.4716   31.3981 C   0  0  0  0  0  0  0  0  0  0  0  0
    0.8457   -5.0789   31.2544 C   0  0  0  0  0  0  0  0  0  0  0  0
    1.6229   -4.6021   32.3187 O   0  0  0  0  0  0  0  0  0  0  0  0
    0.9898   -3.4964   33.0159 N   0  0  0  0  0  0  0  0  0  0  0  0
    0.5938   -2.3902   32.1426 C   0  0  0  0  0  0  0  0  0  0  0  0
   -1.2176   -2.0995   31.9120 S   0  0  0  0  0  0  0  0  0  0  0  0
   -1.9082   -3.3175   31.5176 O   0  0  0  0  0  0  0  0  0  0  0  0
   -1.7153   -1.2876   33.0036 O   0  0  0  0  0  0  0  0  0  0  0  0
   -1.0947   -1.0582   30.4854 C   0  0  0  0  0  0  0  0  0  0  0  0
   -1.0999   -1.6408   29.2179 C   0  0  0  0  0  0  0  0  0  0  0  0
   -0.6120   -0.8985   28.1532 C   0  0  0  0  0  0  0  0  0  0  0  0
   -0.1410    0.3994   28.3678 C   0  0  0  0  0  0  0  0  0  0  0  0
   -0.2434    1.0035   29.6143 C   0  0  0  0  0  0  0  0  0  0  0  0
   -0.7231    0.2733   30.6885 C   0  0  0  0  0  0  0  0  0  0  0  0
    1.7315   -5.1243   30.0014 C   0  0  0  0  0  0  0  0  0  0  0  0
    1.2588   -6.3242   29.3200 N   0  0  0  0  0  0  0  0  0  0  0  0
    2.5329   -5.7531   35.9188 H   0  0  0  0  0  0  0  0  0  0  0  0
    2.1453   -7.1089   36.9905 H   0  0  0  0  0  0  0  0  0  0  0  0
    1.1724   -5.6306   37.0538 H   0  0  0  0  0  0  0  0  0  0  0  0
   -0.0018   -7.4705   35.8435 H   0  0  0  0  0  0  0  0  0  0  0  0
    1.3620   -7.5888   34.7159 H   0  0  0  0  0  0  0  0  0  0  0  0
    0.9654   -5.4176   33.9888 H   0  0  0  0  0  0  0  0  0  0  0  0
   -1.6334   -6.7871   34.2954 H   0  0  0  0  0  0  0  0  0  0  0  0
   -1.3962   -5.3685   33.2909 H   0  0  0  0  0  0  0  0  0  0  0  0
    0.2882   -7.8248   32.9612 H   0  0  0  0  0  0  0  0  0  0  0  0
   -2.2706   -7.3414   31.4113 H   0  0  0  0  0  0  0  0  0  0  0  0
   -2.0923   -8.4744   32.7587 H   0  0  0  0  0  0  0  0  0  0  0  0
   -0.2123   -9.3876   31.6401 H   0  0  0  0  0  0  0  0  0  0  0  0
   -1.5464   -9.7907   30.7569 H   0  0  0  0  0  0  0  0  0  0  0  0
    0.3943   -8.9947   29.3101 H   0  0  0  0  0  0  0  0  0  0  0  0
   -1.0466   -8.0016   29.1275 H   0  0  0  0  0  0  0  0  0  0  0  0
   -0.0190   -4.4643   31.0220 H   0  0  0  0  0  0  0  0  0  0  0  0
    0.1787   -3.8714   33.5277 H   0  0  0  0  0  0  0  0  0  0  0  0
    0.9652   -1.4623   32.5923 H   0  0  0  0  0  0  0  0  0  0  0  0
    1.0543   -2.4705   31.1534 H   0  0  0  0  0  0  0  0  0  0  0  0
   -1.4081   -2.6719   29.0589 H   0  0  0  0  0  0  0  0  0  0  0  0
   -0.5573   -1.3445   27.1637 H   0  0  0  0  0  0  0  0  0  0  0  0
    0.3159    0.9637   27.5605 H   0  0  0  0  0  0  0  0  0  0  0  0
    0.1064    2.0252   29.7473 H   0  0  0  0  0  0  0  0  0  0  0  0
   -0.7227    0.7155   31.6820 H   0  0  0  0  0  0  0  0  0  0  0  0
    1.5968   -4.2326   29.3794 H   0  0  0  0  0  0  0  0  0  0  0  0
    2.7962   -5.2134   30.2395 H   0  0  0  0  0  0  0  0  0  0  0  0
    0.7339   -6.0312   28.4903 H   0  0  0  0  0  0  0  0  0  0  0  0
  1  2  1  0
  2  3  1  0
  3  4  1  0
  4  5  1  0
  5  6  1  0
  6  7  1  0
  7  8  1  0
  8  9  1  0
  9 10  2  0
 10 11  1  0
 11 12  1  0
 12 13  1  0
 13 14  1  0
 14 15  1  0
 15 16  2  0
 15 17  2  0
 15 18  1  0
 18 19  2  0
 19 20  1  0
 20 21  2  0
 21 22  1  0
 22 23  2  0
 11 24  1  0
 24 25  1  0
 10  5  1  0
 23 18  1  0
 25  9  1  0
  1 26  1  0
  1 27  1  0
  1 28  1  0
  2 29  1  0
  2 30  1  0
  3 31  1  0
  4 32  1  0
  4 33  1  0
  5 34  1  0
  6 35  1  0
  6 36  1  0
  7 37  1  0
  7 38  1  0
  8 39  1  0
  8 40  1  0
 11 41  1  0
 13 42  1  0
 14 43  1  0
 14 44  1  0
 19 45  1  0
 20 46  1  0
 21 47  1  0
 22 48  1  0
 23 49  1  0
 24 50  1  0
 24 51  1  0
 25 52  1  0
M  END
>  <Energy>  (932) 
223.13509752184902

>  <compound_id>  (932) 
2981

>  <target_id>  (932) 
1

>  <reference_id>  (932) 
186

>  <inspiration_ids>  (932) 
[190, 186]

>  <energy_score>  (932) 
-39.08958589464311

>  <distance_score>  (932) 
1.9159699161780535

>  <path>  (932) 
/opt/xchem-fragalysis-2/maxwin/BulkDock/SCRATCH/505736/C2981-P186/C2981-P186.minimised.mol

>  <scratch_subdir>  (932) 
/opt/xchem-fragalysis-2/maxwin/BulkDock/SCRATCH/505736/C2981-P186

>  <fragmenstein_runtime>  (932) 
6.3035888671875

>  <fragmenstein_outcome>  (932) 
too moved

>  <fragmenstein_mode>  (932) 
expansion

>  <fragmenstein_error>  (932) 


$$$$
C149-P190
     RDKit          2D

  0  0  0  0  0  0  0  0  0  0999 V2000
M  END
>  <compound_id>  (933) 
149

>  <target_id>  (933) 
1

>  <reference_id>  (933) 
190

>  <inspiration_ids>  (933) 
[190, 197]

>  <energy_score>  (933) 
nan

>  <distance_score>  (933) 
nan

>  <path>  (933) 
/opt/xchem-fragalysis-2/maxwin/BulkDock/SCRATCH/505736/C149-P190/C149-P190.minimised.mol

>  <scratch_subdir>  (933) 
/opt/xchem-fragalysis-2/maxwin/BulkDock/SCRATCH/505736/C149-P190

>  <fragmenstein_runtime>  (933) 
0.8605239391326904

>  <fragmenstein_outcome>  (933) 
too distant

>  <fragmenstein_mode>  (933) 
expansion

>  <fragmenstein_error>  (933) 
DistanceError: hit0+hit1

$$$$
C2990-P190
     RDKit          3D

 51 53  0  0  0  0  0  0  0  0999 V2000
    2.0000   -4.9560   29.2749 C   0  0  0  0  0  0  0  0  0  0  0  0
    1.1970   -5.9049   30.1123 C   0  0  0  0  0  0  0  0  0  0  0  0
    0.9385   -7.1507   29.5780 C   0  0  0  0  0  0  0  0  0  0  0  0
   -0.0012   -7.9858   30.1354 C   0  0  0  0  0  0  0  0  0  0  0  0
   -0.5016   -7.6981   31.3828 C   0  0  0  0  0  0  0  0  0  0  0  0
   -0.0029   -6.6185   32.1130 C   0  0  0  0  0  0  0  0  0  0  0  0
   -0.0883   -6.6260   33.5091 N   0  0  0  0  0  0  0  0  0  0  0  0
    1.1998   -6.4454   34.1957 C   0  0  0  0  0  0  0  0  0  0  0  0
    1.0249   -5.9819   35.6458 C   0  0  0  0  0  0  0  0  0  0  0  0
   -0.3382   -6.3608   36.2097 C   0  0  0  0  0  0  0  0  0  0  0  0
   -0.2473   -6.4581   37.6281 O   0  0  0  0  0  0  0  0  0  0  0  0
   -0.7422   -7.7004   35.6320 C   0  0  0  0  0  0  0  0  0  0  0  0
   -0.9657   -7.6091   34.1361 C   0  0  0  0  0  0  0  0  0  0  0  0
    0.6655   -5.6138   31.3775 C   0  0  0  0  0  0  0  0  0  0  0  0
    0.6416   -4.2615   31.7214 N   0  0  0  0  0  0  0  0  0  0  0  0
    0.1206   -3.5532   33.0115 C   0  0  0  0  0  0  0  0  0  0  0  0
   -0.2936   -4.0027   34.0072 O   0  0  0  0  0  0  0  0  0  0  0  0
    0.1366   -2.1005   32.7294 C   0  0  0  0  0  0  0  0  0  0  0  0
   -1.4724   -1.7989   32.0171 S   0  0  0  0  0  0  0  0  0  0  0  0
   -2.1827   -0.8947   32.8979 O   0  0  0  0  0  0  0  0  0  0  0  0
   -2.0953   -3.0231   31.5369 O   0  0  0  0  0  0  0  0  0  0  0  0
   -1.0580   -0.8550   30.5746 C   0  0  0  0  0  0  0  0  0  0  0  0
   -1.3621   -1.3455   29.3076 C   0  0  0  0  0  0  0  0  0  0  0  0
   -1.0859   -0.5537   28.1990 C   0  0  0  0  0  0  0  0  0  0  0  0
   -0.4565    0.6806   28.3445 C   0  0  0  0  0  0  0  0  0  0  0  0
   -0.1200    1.1431   29.6130 C   0  0  0  0  0  0  0  0  0  0  0  0
   -0.4407    0.3875   30.7379 C   0  0  0  0  0  0  0  0  0  0  0  0
    1.3433   -4.2252   28.7924 H   0  0  0  0  0  0  0  0  0  0  0  0
    2.5743   -5.4744   28.4994 H   0  0  0  0  0  0  0  0  0  0  0  0
    2.7318   -4.4259   29.8941 H   0  0  0  0  0  0  0  0  0  0  0  0
    1.4708   -7.4871   28.6957 H   0  0  0  0  0  0  0  0  0  0  0  0
   -0.2496   -8.9303   29.6580 H   0  0  0  0  0  0  0  0  0  0  0  0
   -1.1696   -8.4380   31.8096 H   0  0  0  0  0  0  0  0  0  0  0  0
    1.7305   -7.4049   34.2026 H   0  0  0  0  0  0  0  0  0  0  0  0
    1.8731   -5.7417   33.6933 H   0  0  0  0  0  0  0  0  0  0  0  0
    1.1668   -4.8990   35.7367 H   0  0  0  0  0  0  0  0  0  0  0  0
    1.8312   -6.4121   36.2547 H   0  0  0  0  0  0  0  0  0  0  0  0
   -1.0956   -5.6051   35.9736 H   0  0  0  0  0  0  0  0  0  0  0  0
   -0.1551   -5.5502   37.9671 H   0  0  0  0  0  0  0  0  0  0  0  0
   -1.6357   -8.1182   36.0833 H   0  0  0  0  0  0  0  0  0  0  0  0
    0.0471   -8.4254   35.8532 H   0  0  0  0  0  0  0  0  0  0  0  0
   -2.0002   -7.3290   33.9468 H   0  0  0  0  0  0  0  0  0  0  0  0
   -0.7959   -8.6019   33.7355 H   0  0  0  0  0  0  0  0  0  0  0  0
    1.0034   -3.5715   31.0796 H   0  0  0  0  0  0  0  0  0  0  0  0
    0.9349   -1.8108   32.0448 H   0  0  0  0  0  0  0  0  0  0  0  0
    0.2375   -1.5249   33.6526 H   0  0  0  0  0  0  0  0  0  0  0  0
   -1.8475   -2.3079   29.1612 H   0  0  0  0  0  0  0  0  0  0  0  0
   -1.3885   -0.8938   27.2153 H   0  0  0  0  0  0  0  0  0  0  0  0
   -0.2488    1.2904   27.4686 H   0  0  0  0  0  0  0  0  0  0  0  0
    0.3543    2.1166   29.7217 H   0  0  0  0  0  0  0  0  0  0  0  0
   -0.2225    0.7841   31.7265 H   0  0  0  0  0  0  0  0  0  0  0  0
  1  2  1  0
  2  3  2  0
  3  4  1  0
  4  5  2  0
  5  6  1  0
  6  7  1  0
  7  8  1  0
  8  9  1  0
  9 10  1  0
 10 11  1  0
 10 12  1  0
 12 13  1  0
  6 14  2  0
 14 15  1  0
 15 16  1  0
 16 17  2  0
 16 18  1  0
 18 19  1  0
 19 20  2  0
 19 21  2  0
 19 22  1  0
 22 23  2  0
 23 24  1  0
 24 25  2  0
 25 26  1  0
 26 27  2  0
 14  2  1  0
 27 22  1  0
 13  7  1  0
  1 28  1  0
  1 29  1  0
  1 30  1  0
  3 31  1  0
  4 32  1  0
  5 33  1  0
  8 34  1  0
  8 35  1  0
  9 36  1  0
  9 37  1  0
 10 38  1  0
 11 39  1  0
 12 40  1  0
 12 41  1  0
 13 42  1  0
 13 43  1  0
 15 44  1  0
 18 45  1  0
 18 46  1  0
 23 47  1  0
 24 48  1  0
 25 49  1  0
 26 50  1  0
 27 51  1  0
M  END
>  <Energy>  (934) 
95.795628515433719

>  <compound_id>  (934) 
2990

>  <target_id>  (934) 
1

>  <reference_id>  (934) 
190

>  <inspiration_ids>  (934) 
[190, 200]

>  <energy_score>  (934) 
-23.726702611321286

>  <distance_score>  (934) 
1.9132544512443297

>  <path>  (934) 
/opt/xchem-fragalysis-2/maxwin/BulkDock/SCRATCH/505736/C2990-P190/C2990-P190.minimised.mol

>  <scratch_subdir>  (934) 
/opt/xchem-fragalysis-2/maxwin/BulkDock/SCRATCH/505736/C2990-P190

>  <fragmenstein_runtime>  (934) 
14.782930374145508

>  <fragmenstein_outcome>  (934) 
too moved

>  <fragmenstein_mode>  (934) 
expansion

>  <fragmenstein_error>  (934) 


$$$$
C2990-P200
     RDKit          3D

 51 53  0  0  0  0  0  0  0  0999 V2000
    2.4044   -2.1803   29.8771 C   0  0  0  0  0  0  0  0  0  0  0  0
    2.0131   -3.6113   30.0542 C   0  0  0  0  0  0  0  0  0  0  0  0
    2.4104   -4.4894   29.0367 C   0  0  0  0  0  0  0  0  0  0  0  0
    1.9895   -5.8095   29.0310 C   0  0  0  0  0  0  0  0  0  0  0  0
    1.1977   -6.2990   30.0660 C   0  0  0  0  0  0  0  0  0  0  0  0
    0.9045   -5.5020   31.1666 C   0  0  0  0  0  0  0  0  0  0  0  0
    0.3230   -6.0245   32.3451 N   0  0  0  0  0  0  0  0  0  0  0  0
    1.2368   -5.9559   33.5144 C   0  0  0  0  0  0  0  0  0  0  0  0
    0.8573   -6.9352   34.6201 C   0  0  0  0  0  0  0  0  0  0  0  0
   -0.6463   -7.0247   34.7921 C   0  0  0  0  0  0  0  0  0  0  0  0
   -0.9782   -8.0480   35.7214 O   0  0  0  0  0  0  0  0  0  0  0  0
   -1.3829   -7.2461   33.4789 C   0  0  0  0  0  0  0  0  0  0  0  0
   -0.5102   -7.2086   32.2449 C   0  0  0  0  0  0  0  0  0  0  0  0
    1.2440   -4.1212   31.1109 C   0  0  0  0  0  0  0  0  0  0  0  0
    0.5587   -3.3947   32.0873 N   0  0  0  0  0  0  0  0  0  0  0  0
    0.7880   -2.0840   32.6237 C   0  0  0  0  0  0  0  0  0  0  0  0
    1.6748   -1.3022   32.4300 O   0  0  0  0  0  0  0  0  0  0  0  0
   -0.3797   -1.6858   33.4893 C   0  0  0  0  0  0  0  0  0  0  0  0
   -1.8172   -1.4637   32.4740 S   0  0  0  0  0  0  0  0  0  0  0  0
   -2.7175   -0.5471   33.1508 O   0  0  0  0  0  0  0  0  0  0  0  0
   -2.2922   -2.7838   32.0757 O   0  0  0  0  0  0  0  0  0  0  0  0
   -1.2764   -0.6269   31.0081 C   0  0  0  0  0  0  0  0  0  0  0  0
   -1.6448   -1.1288   29.7623 C   0  0  0  0  0  0  0  0  0  0  0  0
   -1.2114   -0.4740   28.6145 C   0  0  0  0  0  0  0  0  0  0  0  0
   -0.3967    0.6531   28.7026 C   0  0  0  0  0  0  0  0  0  0  0  0
   -0.0135    1.1371   29.9504 C   0  0  0  0  0  0  0  0  0  0  0  0
   -0.4636    0.5061   31.1106 C   0  0  0  0  0  0  0  0  0  0  0  0
    2.8336   -1.9929   28.8858 H   0  0  0  0  0  0  0  0  0  0  0  0
    3.1682   -1.9016   30.6081 H   0  0  0  0  0  0  0  0  0  0  0  0
    1.5338   -1.5289   29.9520 H   0  0  0  0  0  0  0  0  0  0  0  0
    3.0071   -4.1254   28.2004 H   0  0  0  0  0  0  0  0  0  0  0  0
    2.2783   -6.4475   28.2019 H   0  0  0  0  0  0  0  0  0  0  0  0
    0.8708   -7.3324   30.0283 H   0  0  0  0  0  0  0  0  0  0  0  0
    2.2738   -6.1561   33.2154 H   0  0  0  0  0  0  0  0  0  0  0  0
    1.2114   -4.9491   33.9448 H   0  0  0  0  0  0  0  0  0  0  0  0
    1.3310   -6.6413   35.5649 H   0  0  0  0  0  0  0  0  0  0  0  0
    1.2675   -7.9222   34.4044 H   0  0  0  0  0  0  0  0  0  0  0  0
   -0.9987   -6.0884   35.2420 H   0  0  0  0  0  0  0  0  0  0  0  0
   -1.1094   -8.8955   35.2458 H   0  0  0  0  0  0  0  0  0  0  0  0
   -2.0411   -6.3893   33.3783 H   0  0  0  0  0  0  0  0  0  0  0  0
   -1.9939   -8.1518   33.4802 H   0  0  0  0  0  0  0  0  0  0  0  0
   -1.1621   -7.1628   31.3633 H   0  0  0  0  0  0  0  0  0  0  0  0
    0.0861   -8.1140   32.1693 H   0  0  0  0  0  0  0  0  0  0  0  0
   -0.2567   -3.8036   32.5430 H   0  0  0  0  0  0  0  0  0  0  0  0
   -0.1623   -0.7402   33.9942 H   0  0  0  0  0  0  0  0  0  0  0  0
   -0.5928   -2.4448   34.2470 H   0  0  0  0  0  0  0  0  0  0  0  0
   -2.2609   -2.0178   29.6644 H   0  0  0  0  0  0  0  0  0  0  0  0
   -1.5119   -0.8489   27.6462 H   0  0  0  0  0  0  0  0  0  0  0  0
   -0.0623    1.1553   27.7979 H   0  0  0  0  0  0  0  0  0  0  0  0
    0.6208    2.0186   30.0169 H   0  0  0  0  0  0  0  0  0  0  0  0
   -0.1661    0.9092   32.0748 H   0  0  0  0  0  0  0  0  0  0  0  0
  1  2  1  0
  2  3  2  0
  3  4  1  0
  4  5  2  0
  5  6  1  0
  6  7  1  0
  7  8  1  0
  8  9  1  0
  9 10  1  0
 10 11  1  0
 10 12  1  0
 12 13  1  0
  6 14  2  0
 14 15  1  0
 15 16  1  0
 16 17  2  0
 16 18  1  0
 18 19  1  0
 19 20  2  0
 19 21  2  0
 19 22  1  0
 22 23  2  0
 23 24  1  0
 24 25  2  0
 25 26  1  0
 26 27  2  0
 14  2  1  0
 27 22  1  0
 13  7  1  0
  1 28  1  0
  1 29  1  0
  1 30  1  0
  3 31  1  0
  4 32  1  0
  5 33  1  0
  8 34  1  0
  8 35  1  0
  9 36  1  0
  9 37  1  0
 10 38  1  0
 11 39  1  0
 12 40  1  0
 12 41  1  0
 13 42  1  0
 13 43  1  0
 15 44  1  0
 18 45  1  0
 18 46  1  0
 23 47  1  0
 24 48  1  0
 25 49  1  0
 26 50  1  0
 27 51  1  0
M  END
>  <Energy>  (935) 
60.943242011104147

>  <compound_id>  (935) 
2990

>  <target_id>  (935) 
1

>  <reference_id>  (935) 
200

>  <inspiration_ids>  (935) 
[190, 200]

>  <energy_score>  (935) 
-55.746230699007384

>  <distance_score>  (935) 
2.521190046829477

>  <path>  (935) 
/opt/xchem-fragalysis-2/maxwin/BulkDock/SCRATCH/505736/C2990-P200/C2990-P200.minimised.mol

>  <scratch_subdir>  (935) 
/opt/xchem-fragalysis-2/maxwin/BulkDock/SCRATCH/505736/C2990-P200

>  <fragmenstein_runtime>  (935) 
24.194469928741455

>  <fragmenstein_outcome>  (935) 
too moved

>  <fragmenstein_mode>  (935) 
expansion

>  <fragmenstein_error>  (935) 


$$$$
C2991-P190
     RDKit          3D

 37 38  0  0  0  0  0  0  0  0999 V2000
   -0.3397   -6.0721   35.7008 C   0  0  0  0  0  0  0  0  0  0  0  0
   -0.5343   -6.4737   34.2747 C   0  0  0  0  0  0  0  0  0  0  0  0
   -0.9198   -7.7662   33.9554 C   0  0  0  0  0  0  0  0  0  0  0  0
   -1.0771   -8.1702   32.6208 C   0  0  0  0  0  0  0  0  0  0  0  0
   -0.7973   -7.3114   31.5786 C   0  0  0  0  0  0  0  0  0  0  0  0
   -0.8527   -7.7190   30.2495 N   0  0  0  0  0  0  0  0  0  0  0  0
   -0.6393   -5.9871   31.8861 C   0  0  0  0  0  0  0  0  0  0  0  0
   -0.5073   -5.5823   33.2201 C   0  0  0  0  0  0  0  0  0  0  0  0
   -0.2774   -4.2464   33.3628 N   0  0  0  0  0  0  0  0  0  0  0  0
   -0.9791   -3.0292   32.7081 C   0  0  0  0  0  0  0  0  0  0  0  0
   -1.9114   -2.9803   32.0066 O   0  0  0  0  0  0  0  0  0  0  0  0
   -0.1599   -1.8373   33.0550 C   0  0  0  0  0  0  0  0  0  0  0  0
    0.9871   -1.7688   31.6730 S   0  0  0  0  0  0  0  0  0  0  0  0
    2.0295   -0.8243   32.0362 O   0  0  0  0  0  0  0  0  0  0  0  0
    1.3510   -3.0978   31.2088 O   0  0  0  0  0  0  0  0  0  0  0  0
    0.0161   -1.0394   30.4012 C   0  0  0  0  0  0  0  0  0  0  0  0
    0.0328    0.3435   30.2641 C   0  0  0  0  0  0  0  0  0  0  0  0
   -0.6233    0.9208   29.1806 C   0  0  0  0  0  0  0  0  0  0  0  0
   -1.3185    0.1207   28.2762 C   0  0  0  0  0  0  0  0  0  0  0  0
   -1.3663   -1.2590   28.4518 C   0  0  0  0  0  0  0  0  0  0  0  0
   -0.6792   -1.8488   29.5029 C   0  0  0  0  0  0  0  0  0  0  0  0
    0.5397   -5.4286   35.8056 H   0  0  0  0  0  0  0  0  0  0  0  0
   -0.1746   -6.9450   36.3417 H   0  0  0  0  0  0  0  0  0  0  0  0
   -1.2207   -5.5372   36.0683 H   0  0  0  0  0  0  0  0  0  0  0  0
   -1.1002   -8.4657   34.7628 H   0  0  0  0  0  0  0  0  0  0  0  0
   -1.3994   -9.1748   32.3902 H   0  0  0  0  0  0  0  0  0  0  0  0
   -0.4370   -8.6485   30.1421 H   0  0  0  0  0  0  0  0  0  0  0  0
   -0.3735   -7.0523   29.6458 H   0  0  0  0  0  0  0  0  0  0  0  0
   -0.5352   -5.2565   31.0876 H   0  0  0  0  0  0  0  0  0  0  0  0
    0.4557   -3.9223   33.9805 H   0  0  0  0  0  0  0  0  0  0  0  0
    0.4080   -1.9370   33.9814 H   0  0  0  0  0  0  0  0  0  0  0  0
   -0.7573   -0.9245   33.0942 H   0  0  0  0  0  0  0  0  0  0  0  0
    0.5969    0.9783   30.9428 H   0  0  0  0  0  0  0  0  0  0  0  0
   -0.5887    1.9970   29.0259 H   0  0  0  0  0  0  0  0  0  0  0  0
   -1.8312    0.5704   27.4283 H   0  0  0  0  0  0  0  0  0  0  0  0
   -1.9255   -1.8699   27.7478 H   0  0  0  0  0  0  0  0  0  0  0  0
   -0.6875   -2.9313   29.5953 H   0  0  0  0  0  0  0  0  0  0  0  0
  1  2  1  0
  2  3  2  0
  3  4  1  0
  4  5  2  0
  5  6  1  0
  5  7  1  0
  7  8  2  0
  8  9  1  0
  9 10  1  0
 10 11  2  0
 10 12  1  0
 12 13  1  0
 13 14  2  0
 13 15  2  0
 13 16  1  0
 16 17  2  0
 17 18  1  0
 18 19  2  0
 19 20  1  0
 20 21  2  0
  8  2  1  0
 21 16  1  0
  1 22  1  0
  1 23  1  0
  1 24  1  0
  3 25  1  0
  4 26  1  0
  6 27  1  0
  6 28  1  0
  7 29  1  0
  9 30  1  0
 12 31  1  0
 12 32  1  0
 17 33  1  0
 18 34  1  0
 19 35  1  0
 20 36  1  0
 21 37  1  0
M  END
>  <Energy>  (936) 
50.160666311445155

>  <compound_id>  (936) 
2991

>  <target_id>  (936) 
1

>  <reference_id>  (936) 
190

>  <inspiration_ids>  (936) 
[190, 201]

>  <energy_score>  (936) 
-14.094216434313665

>  <distance_score>  (936) 
2.398194983907274

>  <path>  (936) 
/opt/xchem-fragalysis-2/maxwin/BulkDock/SCRATCH/505736/C2991-P190/C2991-P190.minimised.mol

>  <scratch_subdir>  (936) 
/opt/xchem-fragalysis-2/maxwin/BulkDock/SCRATCH/505736/C2991-P190

>  <fragmenstein_runtime>  (936) 
6.571621417999268

>  <fragmenstein_outcome>  (936) 
too moved

>  <fragmenstein_mode>  (936) 
expansion

>  <fragmenstein_error>  (936) 


$$$$
C2991-P201
     RDKit          3D

 37 38  0  0  0  0  0  0  0  0999 V2000
   -0.1756   -6.0401   35.7322 C   0  0  0  0  0  0  0  0  0  0  0  0
   -0.4755   -6.4211   34.3190 C   0  0  0  0  0  0  0  0  0  0  0  0
   -0.8826   -7.7133   34.0208 C   0  0  0  0  0  0  0  0  0  0  0  0
   -1.1495   -8.1050   32.7011 C   0  0  0  0  0  0  0  0  0  0  0  0
   -0.9982   -7.2226   31.6516 C   0  0  0  0  0  0  0  0  0  0  0  0
   -1.1653   -7.6177   30.3317 N   0  0  0  0  0  0  0  0  0  0  0  0
   -0.7917   -5.9046   31.9566 C   0  0  0  0  0  0  0  0  0  0  0  0
   -0.5244   -5.5163   33.2751 C   0  0  0  0  0  0  0  0  0  0  0  0
   -0.1853   -4.1992   33.3844 N   0  0  0  0  0  0  0  0  0  0  0  0
   -0.8659   -2.9323   32.8019 C   0  0  0  0  0  0  0  0  0  0  0  0
   -1.8635   -2.8153   32.2049 O   0  0  0  0  0  0  0  0  0  0  0  0
    0.0694   -1.8035   33.0513 C   0  0  0  0  0  0  0  0  0  0  0  0
    1.1134   -1.8533   31.5841 S   0  0  0  0  0  0  0  0  0  0  0  0
    2.2595   -1.0045   31.8629 O   0  0  0  0  0  0  0  0  0  0  0  0
    1.3292   -3.2103   31.1100 O   0  0  0  0  0  0  0  0  0  0  0  0
    0.1280   -1.0558   30.3634 C   0  0  0  0  0  0  0  0  0  0  0  0
    0.3888    0.2758   30.0687 C   0  0  0  0  0  0  0  0  0  0  0  0
   -0.2943    0.8838   29.0187 C   0  0  0  0  0  0  0  0  0  0  0  0
   -1.2762    0.1821   28.3220 C   0  0  0  0  0  0  0  0  0  0  0  0
   -1.5553   -1.1400   28.6512 C   0  0  0  0  0  0  0  0  0  0  0  0
   -0.8275   -1.7772   29.6469 C   0  0  0  0  0  0  0  0  0  0  0  0
    0.6787   -5.3574   35.7805 H   0  0  0  0  0  0  0  0  0  0  0  0
    0.0846   -6.9177   36.3341 H   0  0  0  0  0  0  0  0  0  0  0  0
   -1.0463   -5.5568   36.1863 H   0  0  0  0  0  0  0  0  0  0  0  0
   -0.9847   -8.4280   34.8321 H   0  0  0  0  0  0  0  0  0  0  0  0
   -1.4730   -9.1147   32.4918 H   0  0  0  0  0  0  0  0  0  0  0  0
   -0.6563   -8.4852   30.1500 H   0  0  0  0  0  0  0  0  0  0  0  0
   -0.9073   -6.8911   29.6698 H   0  0  0  0  0  0  0  0  0  0  0  0
   -0.7413   -5.1698   31.1581 H   0  0  0  0  0  0  0  0  0  0  0  0
    0.6314   -3.9298   33.9169 H   0  0  0  0  0  0  0  0  0  0  0  0
    0.6949   -1.9311   33.9364 H   0  0  0  0  0  0  0  0  0  0  0  0
   -0.4478   -0.8438   33.1081 H   0  0  0  0  0  0  0  0  0  0  0  0
    1.1545    0.8403   30.5955 H   0  0  0  0  0  0  0  0  0  0  0  0
   -0.0784    1.9157   28.7481 H   0  0  0  0  0  0  0  0  0  0  0  0
   -1.8212    0.6596   27.5094 H   0  0  0  0  0  0  0  0  0  0  0  0
   -2.3183   -1.6749   28.0945 H   0  0  0  0  0  0  0  0  0  0  0  0
   -1.0094   -2.8314   29.8341 H   0  0  0  0  0  0  0  0  0  0  0  0
  1  2  1  0
  2  3  2  0
  3  4  1  0
  4  5  2  0
  5  6  1  0
  5  7  1  0
  7  8  2  0
  8  9  1  0
  9 10  1  0
 10 11  2  0
 10 12  1  0
 12 13  1  0
 13 14  2  0
 13 15  2  0
 13 16  1  0
 16 17  2  0
 17 18  1  0
 18 19  2  0
 19 20  1  0
 20 21  2  0
  8  2  1  0
 21 16  1  0
  1 22  1  0
  1 23  1  0
  1 24  1  0
  3 25  1  0
  4 26  1  0
  6 27  1  0
  6 28  1  0
  7 29  1  0
  9 30  1  0
 12 31  1  0
 12 32  1  0
 17 33  1  0
 18 34  1  0
 19 35  1  0
 20 36  1  0
 21 37  1  0
M  END
>  <Energy>  (937) 
51.019606087036991

>  <compound_id>  (937) 
2991

>  <target_id>  (937) 
1

>  <reference_id>  (937) 
201

>  <inspiration_ids>  (937) 
[190, 201]

>  <energy_score>  (937) 
-13.235276658723194

>  <distance_score>  (937) 
2.397029205121525

>  <path>  (937) 
/opt/xchem-fragalysis-2/maxwin/BulkDock/SCRATCH/505736/C2991-P201/C2991-P201.minimised.mol

>  <scratch_subdir>  (937) 
/opt/xchem-fragalysis-2/maxwin/BulkDock/SCRATCH/505736/C2991-P201

>  <fragmenstein_runtime>  (937) 
6.562485218048096

>  <fragmenstein_outcome>  (937) 
too moved

>  <fragmenstein_mode>  (937) 
expansion

>  <fragmenstein_error>  (937) 


$$$$
C2992-P190
     RDKit          3D

 53 55  0  0  0  0  0  0  0  0999 V2000
   -0.3393   -3.9124   35.6823 C   0  0  0  0  0  0  0  0  0  0  0  0
    0.8841   -4.8097   35.4994 C   0  0  0  0  0  0  0  0  0  0  0  0
    2.0817   -4.0523   34.8823 C   0  0  0  0  0  0  0  0  0  0  0  0
    1.7335   -3.4458   33.6178 N   0  0  0  0  0  0  0  0  0  0  0  0
    1.8758   -3.9848   32.1660 C   0  0  0  0  0  0  0  0  0  0  0  0
    2.3673   -4.9692   31.7677 O   0  0  0  0  0  0  0  0  0  0  0  0
    1.2700   -2.9854   31.2250 C   0  0  0  0  0  0  0  0  0  0  0  0
   -0.4294   -2.6097   31.6093 S   0  0  0  0  0  0  0  0  0  0  0  0
   -0.4740   -1.9368   32.8971 O   0  0  0  0  0  0  0  0  0  0  0  0
   -1.3094   -3.7266   31.3232 O   0  0  0  0  0  0  0  0  0  0  0  0
   -0.7127   -1.3586   30.3927 C   0  0  0  0  0  0  0  0  0  0  0  0
   -0.2712   -0.0563   30.6533 C   0  0  0  0  0  0  0  0  0  0  0  0
   -0.3428    0.8991   29.6459 C   0  0  0  0  0  0  0  0  0  0  0  0
   -0.8731    0.5561   28.4054 C   0  0  0  0  0  0  0  0  0  0  0  0
   -1.3372   -0.7386   28.1739 C   0  0  0  0  0  0  0  0  0  0  0  0
   -1.2544   -1.7101   29.1624 C   0  0  0  0  0  0  0  0  0  0  0  0
    3.3606   -4.9000   34.8452 C   0  0  0  0  0  0  0  0  0  0  0  0
    3.1224   -6.3564   35.2347 C   0  0  0  0  0  0  0  0  0  0  0  0
    1.8976   -6.9278   34.5272 C   0  0  0  0  0  0  0  0  0  0  0  0
    0.5651   -6.1879   34.8479 C   0  0  0  0  0  0  0  0  0  0  0  0
   -0.2067   -6.9659   35.9463 C   0  0  0  0  0  0  0  0  0  0  0  0
   -0.8702   -8.1903   35.3897 C   0  0  0  0  0  0  0  0  0  0  0  0
   -1.6890   -7.8753   34.1648 C   0  0  0  0  0  0  0  0  0  0  0  0
   -0.8738   -7.3563   33.0846 N   0  0  0  0  0  0  0  0  0  0  0  0
   -0.2999   -6.0935   33.5435 C   0  0  0  0  0  0  0  0  0  0  0  0
   -0.0471   -2.9821   36.1843 H   0  0  0  0  0  0  0  0  0  0  0  0
   -1.1158   -4.3584   36.3074 H   0  0  0  0  0  0  0  0  0  0  0  0
   -0.7996   -3.6251   34.7374 H   0  0  0  0  0  0  0  0  0  0  0  0
    1.2084   -5.0167   36.5326 H   0  0  0  0  0  0  0  0  0  0  0  0
    2.2933   -3.1898   35.5288 H   0  0  0  0  0  0  0  0  0  0  0  0
    1.1741   -2.5907   33.6115 H   0  0  0  0  0  0  0  0  0  0  0  0
    1.2968   -3.3861   30.2067 H   0  0  0  0  0  0  0  0  0  0  0  0
    1.8587   -2.0644   31.2688 H   0  0  0  0  0  0  0  0  0  0  0  0
    0.1517    0.2157   31.6172 H   0  0  0  0  0  0  0  0  0  0  0  0
    0.0119    1.9125   29.8190 H   0  0  0  0  0  0  0  0  0  0  0  0
   -0.9472    1.3038   27.6188 H   0  0  0  0  0  0  0  0  0  0  0  0
   -1.7834   -0.9876   27.2155 H   0  0  0  0  0  0  0  0  0  0  0  0
   -1.6022   -2.7184   28.9493 H   0  0  0  0  0  0  0  0  0  0  0  0
    4.0899   -4.4789   35.5493 H   0  0  0  0  0  0  0  0  0  0  0  0
    3.8472   -4.8549   33.8650 H   0  0  0  0  0  0  0  0  0  0  0  0
    2.9996   -6.4426   36.3212 H   0  0  0  0  0  0  0  0  0  0  0  0
    4.0099   -6.9473   34.9830 H   0  0  0  0  0  0  0  0  0  0  0  0
    2.0915   -6.8876   33.4515 H   0  0  0  0  0  0  0  0  0  0  0  0
    1.8280   -7.9866   34.7887 H   0  0  0  0  0  0  0  0  0  0  0  0
    0.4630   -7.2493   36.7686 H   0  0  0  0  0  0  0  0  0  0  0  0
   -0.9943   -6.3574   36.3962 H   0  0  0  0  0  0  0  0  0  0  0  0
   -0.0916   -8.8985   35.1615 H   0  0  0  0  0  0  0  0  0  0  0  0
   -1.5196   -8.6427   36.1324 H   0  0  0  0  0  0  0  0  0  0  0  0
   -2.2651   -8.7218   33.7979 H   0  0  0  0  0  0  0  0  0  0  0  0
   -2.4124   -7.1320   34.4801 H   0  0  0  0  0  0  0  0  0  0  0  0
   -0.1334   -8.0157   32.8597 H   0  0  0  0  0  0  0  0  0  0  0  0
    0.2844   -5.7137   32.7139 H   0  0  0  0  0  0  0  0  0  0  0  0
   -1.1199   -5.3849   33.6679 H   0  0  0  0  0  0  0  0  0  0  0  0
  1  2  1  0
  2  3  1  0
  3  4  1  0
  4  5  1  0
  5  6  2  0
  5  7  1  0
  7  8  1  0
  8  9  2  0
  8 10  2  0
  8 11  1  0
 11 12  2  0
 12 13  1  0
 13 14  2  0
 14 15  1  0
 15 16  2  0
  3 17  1  0
 17 18  1  0
 18 19  1  0
 19 20  1  0
 20 21  1  0
 21 22  1  0
 22 23  1  0
 23 24  1  0
 24 25  1  0
 20  2  1  0
 16 11  1  0
 25 20  1  0
  1 26  1  0
  1 27  1  0
  1 28  1  0
  2 29  1  0
  3 30  1  0
  4 31  1  0
  7 32  1  0
  7 33  1  0
 12 34  1  0
 13 35  1  0
 14 36  1  0
 15 37  1  0
 16 38  1  0
 17 39  1  0
 17 40  1  0
 18 41  1  0
 18 42  1  0
 19 43  1  0
 19 44  1  0
 21 45  1  0
 21 46  1  0
 22 47  1  0
 22 48  1  0
 23 49  1  0
 23 50  1  0
 24 51  1  0
 25 52  1  0
 25 53  1  0
M  END
>  <Energy>  (938) 
63.258479136056089

>  <compound_id>  (938) 
2992

>  <target_id>  (938) 
1

>  <reference_id>  (938) 
190

>  <inspiration_ids>  (938) 
[190, 202]

>  <energy_score>  (938) 
-12.584687720427723

>  <distance_score>  (938) 
2.171853736148797

>  <path>  (938) 
/opt/xchem-fragalysis-2/maxwin/BulkDock/SCRATCH/505736/C2992-P190/C2992-P190.minimised.mol

>  <scratch_subdir>  (938) 
/opt/xchem-fragalysis-2/maxwin/BulkDock/SCRATCH/505736/C2992-P190

>  <fragmenstein_runtime>  (938) 
7.652395009994507

>  <fragmenstein_outcome>  (938) 
too moved

>  <fragmenstein_mode>  (938) 
expansion

>  <fragmenstein_error>  (938) 


$$$$
C2992-P202
     RDKit          3D

 53 55  0  0  0  0  0  0  0  0999 V2000
   -0.5256   -4.6146   35.4178 C   0  0  0  0  0  0  0  0  0  0  0  0
    0.7865   -5.3813   35.4665 C   0  0  0  0  0  0  0  0  0  0  0  0
    1.9943   -4.5349   34.9567 C   0  0  0  0  0  0  0  0  0  0  0  0
    1.6616   -3.7127   33.8048 N   0  0  0  0  0  0  0  0  0  0  0  0
    1.8893   -3.9625   32.2846 C   0  0  0  0  0  0  0  0  0  0  0  0
    2.4481   -4.8316   31.7344 O   0  0  0  0  0  0  0  0  0  0  0  0
    1.2987   -2.8306   31.5109 C   0  0  0  0  0  0  0  0  0  0  0  0
   -0.4413   -2.6134   31.8050 S   0  0  0  0  0  0  0  0  0  0  0  0
   -0.6023   -1.9572   33.0917 O   0  0  0  0  0  0  0  0  0  0  0  0
   -1.2109   -3.7973   31.4717 O   0  0  0  0  0  0  0  0  0  0  0  0
   -0.7542   -1.3948   30.5560 C   0  0  0  0  0  0  0  0  0  0  0  0
   -0.3537   -0.0753   30.7897 C   0  0  0  0  0  0  0  0  0  0  0  0
   -0.3946    0.8407   29.7431 C   0  0  0  0  0  0  0  0  0  0  0  0
   -0.8561    0.4434   28.4902 C   0  0  0  0  0  0  0  0  0  0  0  0
   -1.2825   -0.8677   28.2828 C   0  0  0  0  0  0  0  0  0  0  0  0
   -1.2285   -1.7999   29.3115 C   0  0  0  0  0  0  0  0  0  0  0  0
    3.2653   -5.3708   34.7531 C   0  0  0  0  0  0  0  0  0  0  0  0
    3.2667   -6.6228   35.6110 C   0  0  0  0  0  0  0  0  0  0  0  0
    2.0332   -7.5124   35.4041 C   0  0  0  0  0  0  0  0  0  0  0  0
    0.7405   -6.8138   34.8595 C   0  0  0  0  0  0  0  0  0  0  0  0
   -0.4492   -7.6193   35.4139 C   0  0  0  0  0  0  0  0  0  0  0  0
   -1.7350   -7.5043   34.6213 C   0  0  0  0  0  0  0  0  0  0  0  0
   -1.5736   -7.4095   33.1076 C   0  0  0  0  0  0  0  0  0  0  0  0
   -0.2394   -7.6959   32.6439 N   0  0  0  0  0  0  0  0  0  0  0  0
    0.6786   -6.7736   33.3006 C   0  0  0  0  0  0  0  0  0  0  0  0
   -0.3847   -3.5853   35.7677 H   0  0  0  0  0  0  0  0  0  0  0  0
   -1.2707   -5.0536   36.0868 H   0  0  0  0  0  0  0  0  0  0  0  0
   -0.9357   -4.5654   34.4073 H   0  0  0  0  0  0  0  0  0  0  0  0
    0.9706   -5.5158   36.5454 H   0  0  0  0  0  0  0  0  0  0  0  0
    2.2095   -3.8031   35.7475 H   0  0  0  0  0  0  0  0  0  0  0  0
    1.2022   -2.8111   33.9375 H   0  0  0  0  0  0  0  0  0  0  0  0
    1.4290   -3.0366   30.4431 H   0  0  0  0  0  0  0  0  0  0  0  0
    1.8245   -1.9056   31.7645 H   0  0  0  0  0  0  0  0  0  0  0  0
    0.0229    0.2370   31.7605 H   0  0  0  0  0  0  0  0  0  0  0  0
   -0.0635    1.8656   29.8933 H   0  0  0  0  0  0  0  0  0  0  0  0
   -0.9022    1.1603   27.6732 H   0  0  0  0  0  0  0  0  0  0  0  0
   -1.6708   -1.1624   27.3121 H   0  0  0  0  0  0  0  0  0  0  0  0
   -1.5357   -2.8251   29.1151 H   0  0  0  0  0  0  0  0  0  0  0  0
    4.1444   -4.7568   34.9851 H   0  0  0  0  0  0  0  0  0  0  0  0
    3.3966   -5.6817   33.7157 H   0  0  0  0  0  0  0  0  0  0  0  0
    3.3173   -6.3249   36.6665 H   0  0  0  0  0  0  0  0  0  0  0  0
    4.1741   -7.2081   35.4209 H   0  0  0  0  0  0  0  0  0  0  0  0
    2.2981   -8.3615   34.7798 H   0  0  0  0  0  0  0  0  0  0  0  0
    1.8199   -7.9531   36.3886 H   0  0  0  0  0  0  0  0  0  0  0  0
   -0.1815   -8.6690   35.4113 H   0  0  0  0  0  0  0  0  0  0  0  0
   -0.6314   -7.3764   36.4673 H   0  0  0  0  0  0  0  0  0  0  0  0
   -2.4034   -8.3326   34.8768 H   0  0  0  0  0  0  0  0  0  0  0  0
   -2.2395   -6.6164   34.9772 H   0  0  0  0  0  0  0  0  0  0  0  0
   -2.2525   -8.1046   32.6061 H   0  0  0  0  0  0  0  0  0  0  0  0
   -1.8297   -6.4036   32.7729 H   0  0  0  0  0  0  0  0  0  0  0  0
   -0.0526   -8.6527   32.8870 H   0  0  0  0  0  0  0  0  0  0  0  0
    1.6735   -6.9312   32.8841 H   0  0  0  0  0  0  0  0  0  0  0  0
    0.3644   -5.7846   32.9697 H   0  0  0  0  0  0  0  0  0  0  0  0
  1  2  1  0
  2  3  1  0
  3  4  1  0
  4  5  1  0
  5  6  2  0
  5  7  1  0
  7  8  1  0
  8  9  2  0
  8 10  2  0
  8 11  1  0
 11 12  2  0
 12 13  1  0
 13 14  2  0
 14 15  1  0
 15 16  2  0
  3 17  1  0
 17 18  1  0
 18 19  1  0
 19 20  1  0
 20 21  1  0
 21 22  1  0
 22 23  1  0
 23 24  1  0
 24 25  1  0
 20  2  1  0
 16 11  1  0
 25 20  1  0
  1 26  1  0
  1 27  1  0
  1 28  1  0
  2 29  1  0
  3 30  1  0
  4 31  1  0
  7 32  1  0
  7 33  1  0
 12 34  1  0
 13 35  1  0
 14 36  1  0
 15 37  1  0
 16 38  1  0
 17 39  1  0
 17 40  1  0
 18 41  1  0
 18 42  1  0
 19 43  1  0
 19 44  1  0
 21 45  1  0
 21 46  1  0
 22 47  1  0
 22 48  1  0
 23 49  1  0
 23 50  1  0
 24 51  1  0
 25 52  1  0
 25 53  1  0
M  END
>  <Energy>  (939) 
73.506544936528897

>  <compound_id>  (939) 
2992

>  <target_id>  (939) 
1

>  <reference_id>  (939) 
202

>  <inspiration_ids>  (939) 
[190, 202]

>  <energy_score>  (939) 
-2.3366219199548937

>  <distance_score>  (939) 
2.0449338304155478

>  <path>  (939) 
/opt/xchem-fragalysis-2/maxwin/BulkDock/SCRATCH/505736/C2992-P202/C2992-P202.minimised.mol

>  <scratch_subdir>  (939) 
/opt/xchem-fragalysis-2/maxwin/BulkDock/SCRATCH/505736/C2992-P202

>  <fragmenstein_runtime>  (939) 
8.082477807998657

>  <fragmenstein_outcome>  (939) 
too moved

>  <fragmenstein_mode>  (939) 
expansion

>  <fragmenstein_error>  (939) 


$$$$
C2993-P191
     RDKit          3D

 50 52  0  0  0  0  0  0  0  0999 V2000
   12.9352   -4.2383   17.4289 C   0  0  0  0  0  0  0  0  0  0  0  0
   13.7204   -3.0656   17.8048 C   0  0  0  0  0  0  0  0  0  0  0  0
   14.7001   -2.8807   18.7379 C   0  0  0  0  0  0  0  0  0  0  0  0
   15.1526   -1.5669   18.5042 C   0  0  0  0  0  0  0  0  0  0  0  0
   16.3121   -0.9077   19.1620 C   0  0  0  0  0  0  0  0  0  0  0  0
   17.5138   -0.8893   18.3219 N   0  0  0  0  0  0  0  0  0  0  0  0
   18.3407   -2.3104   18.0348 S   0  0  0  0  0  0  0  0  0  0  0  0
   19.6345   -2.1515   18.6501 O   0  0  0  0  0  0  0  0  0  0  0  0
   17.4975   -3.4424   18.3197 O   0  0  0  0  0  0  0  0  0  0  0  0
   18.5024   -2.1736   16.3663 N   0  0  0  0  0  0  0  0  0  0  0  0
   19.6025   -1.2800   15.8832 C   0  0  0  0  0  0  0  0  0  0  0  0
   19.3170   -0.7450   14.4661 C   0  0  0  0  0  0  0  0  0  0  0  0
   18.0776    0.0447   14.3782 N   0  0  0  0  0  0  0  0  0  0  0  0
   17.0169   -0.4704   15.2499 C   0  0  0  0  0  0  0  0  0  0  0  0
   15.7178    0.0241   14.7834 N   0  0  0  0  0  0  0  0  0  0  0  0
   14.9595   -0.7802   13.8281 C   0  0  0  0  0  0  0  0  0  0  0  0
   15.6379   -0.8420   12.4823 C   0  0  0  0  0  0  0  0  0  0  0  0
   16.3604   -2.0032   12.1650 C   0  0  0  0  0  0  0  0  0  0  0  0
   17.1861   -2.0569   11.0465 C   0  0  0  0  0  0  0  0  0  0  0  0
   17.8303   -3.2339   10.8061 O   0  0  0  0  0  0  0  0  0  0  0  0
   17.3018   -0.9575   10.2000 C   0  0  0  0  0  0  0  0  0  0  0  0
   18.1635   -0.9780    9.0546 C   0  0  0  0  0  0  0  0  0  0  0  0
   18.8358   -0.9639    8.1090 N   0  0  0  0  0  0  0  0  0  0  0  0
   16.5311    0.1837   10.4644 C   0  0  0  0  0  0  0  0  0  0  0  0
   15.7020    0.2429   11.5940 C   0  0  0  0  0  0  0  0  0  0  0  0
   14.7263    1.8471   11.8698 Br  0  0  0  0  0  0  0  0  0  0  0  0
   17.2198   -1.9848   15.6073 C   0  0  0  0  0  0  0  0  0  0  0  0
   14.4031   -0.9503   17.5747 N   0  0  0  0  0  0  0  0  0  0  0  0
   13.4999   -1.9084   17.1340 O   0  0  0  0  0  0  0  0  0  0  0  0
   13.5570   -4.9461   16.8794 H   0  0  0  0  0  0  0  0  0  0  0  0
   12.0624   -3.9833   16.8234 H   0  0  0  0  0  0  0  0  0  0  0  0
   12.6157   -4.7344   18.3432 H   0  0  0  0  0  0  0  0  0  0  0  0
   15.1004   -3.6179   19.4195 H   0  0  0  0  0  0  0  0  0  0  0  0
   16.0492    0.1325   19.3908 H   0  0  0  0  0  0  0  0  0  0  0  0
   16.5446   -1.3764   20.1253 H   0  0  0  0  0  0  0  0  0  0  0  0
   18.1849   -0.1741   18.6019 H   0  0  0  0  0  0  0  0  0  0  0  0
   19.7347   -0.4294   16.5620 H   0  0  0  0  0  0  0  0  0  0  0  0
   20.5331   -1.8578   15.8725 H   0  0  0  0  0  0  0  0  0  0  0  0
   19.2588   -1.5862   13.7642 H   0  0  0  0  0  0  0  0  0  0  0  0
   20.1521   -0.1167   14.1387 H   0  0  0  0  0  0  0  0  0  0  0  0
   17.7464    0.0846   13.4224 H   0  0  0  0  0  0  0  0  0  0  0  0
   17.1693    0.0964   16.1722 H   0  0  0  0  0  0  0  0  0  0  0  0
   15.1302    0.1090   15.6202 H   0  0  0  0  0  0  0  0  0  0  0  0
   14.7830   -1.7872   14.2259 H   0  0  0  0  0  0  0  0  0  0  0  0
   13.9590   -0.3496   13.7046 H   0  0  0  0  0  0  0  0  0  0  0  0
   16.2928   -2.8756   12.8004 H   0  0  0  0  0  0  0  0  0  0  0  0
   17.3764   -3.6871   10.0570 H   0  0  0  0  0  0  0  0  0  0  0  0
   16.5974    1.0435    9.7973 H   0  0  0  0  0  0  0  0  0  0  0  0
   16.3693   -2.3754   16.1672 H   0  0  0  0  0  0  0  0  0  0  0  0
   17.2842   -2.6070   14.7114 H   0  0  0  0  0  0  0  0  0  0  0  0
  1  2  1  0
  2  3  2  0
  3  4  1  0
  4  5  1  0
  5  6  1  0
  6  7  1  0
  7  8  2  0
  7  9  2  0
  7 10  1  0
 10 11  1  0
 11 12  1  0
 12 13  1  0
 13 14  1  0
 14 15  1  0
 15 16  1  0
 16 17  1  0
 17 18  2  0
 18 19  1  0
 19 20  1  0
 19 21  2  0
 21 22  1  0
 22 23  3  0
 21 24  1  0
 24 25  2  0
 25 26  1  0
 14 27  1  0
  4 28  2  0
 28 29  1  0
 29  2  1  0
 27 10  1  0
 25 17  1  0
  1 30  1  0
  1 31  1  0
  1 32  1  0
  3 33  1  0
  5 34  1  0
  5 35  1  0
  6 36  1  0
 11 37  1  0
 11 38  1  0
 12 39  1  0
 12 40  1  0
 13 41  1  0
 14 42  1  0
 15 43  1  0
 16 44  1  0
 16 45  1  0
 18 46  1  0
 20 47  1  0
 24 48  1  0
 27 49  1  0
 27 50  1  0
M  END
>  <Energy>  (940) 
-135.06911666313354

>  <compound_id>  (940) 
2993

>  <target_id>  (940) 
1

>  <reference_id>  (940) 
191

>  <inspiration_ids>  (940) 
[191, 4]

>  <energy_score>  (940) 
-51.98935208755232

>  <distance_score>  (940) 
1.5548831908276433

>  <path>  (940) 
/opt/xchem-fragalysis-2/maxwin/BulkDock/SCRATCH/505736/C2993-P191/C2993-P191.minimised.mol

>  <scratch_subdir>  (940) 
/opt/xchem-fragalysis-2/maxwin/BulkDock/SCRATCH/505736/C2993-P191

>  <fragmenstein_runtime>  (940) 
22.80359673500061

>  <fragmenstein_outcome>  (940) 
too moved

>  <fragmenstein_mode>  (940) 
expansion

>  <fragmenstein_error>  (940) 


$$$$
C2993-P4
     RDKit          3D

 50 52  0  0  0  0  0  0  0  0999 V2000
   13.5866   -4.6331   20.7306 C   0  0  0  0  0  0  0  0  0  0  0  0
   14.1994   -3.6161   19.8565 C   0  0  0  0  0  0  0  0  0  0  0  0
   15.1542   -2.6597   20.0832 C   0  0  0  0  0  0  0  0  0  0  0  0
   15.2729   -1.9900   18.8477 C   0  0  0  0  0  0  0  0  0  0  0  0
   16.1731   -0.8624   18.5136 C   0  0  0  0  0  0  0  0  0  0  0  0
   17.6080   -1.1756   18.5858 N   0  0  0  0  0  0  0  0  0  0  0  0
   18.2891   -2.5133   17.8520 S   0  0  0  0  0  0  0  0  0  0  0  0
   19.6348   -2.5586   18.3737 O   0  0  0  0  0  0  0  0  0  0  0  0
   17.4069   -3.6407   18.0017 O   0  0  0  0  0  0  0  0  0  0  0  0
   18.3527   -2.0821   16.2452 N   0  0  0  0  0  0  0  0  0  0  0  0
   19.4834   -1.2072   15.8128 C   0  0  0  0  0  0  0  0  0  0  0  0
   19.2439   -0.6616   14.3836 C   0  0  0  0  0  0  0  0  0  0  0  0
   17.9939    0.1153   14.2210 N   0  0  0  0  0  0  0  0  0  0  0  0
   16.9846   -0.2817   15.2051 C   0  0  0  0  0  0  0  0  0  0  0  0
   15.7239    0.3829   14.8800 N   0  0  0  0  0  0  0  0  0  0  0  0
   14.6537   -0.3674   14.2359 C   0  0  0  0  0  0  0  0  0  0  0  0
   14.9834   -0.5937   12.7891 C   0  0  0  0  0  0  0  0  0  0  0  0
   15.4285   -1.8658   12.4247 C   0  0  0  0  0  0  0  0  0  0  0  0
   16.0278   -2.0654   11.1910 C   0  0  0  0  0  0  0  0  0  0  0  0
   16.5367   -3.2953   10.9211 O   0  0  0  0  0  0  0  0  0  0  0  0
   16.1419   -1.0244   10.2728 C   0  0  0  0  0  0  0  0  0  0  0  0
   16.7453   -1.2100    8.9902 C   0  0  0  0  0  0  0  0  0  0  0  0
   17.1339   -1.3514    7.9035 N   0  0  0  0  0  0  0  0  0  0  0  0
   15.6085    0.2256   10.5895 C   0  0  0  0  0  0  0  0  0  0  0  0
   15.0277    0.4408   11.8397 C   0  0  0  0  0  0  0  0  0  0  0  0
   14.3430    2.1778   12.1896 Br  0  0  0  0  0  0  0  0  0  0  0  0
   17.0802   -1.8170   15.5176 C   0  0  0  0  0  0  0  0  0  0  0  0
   14.4187   -2.4764   17.9345 N   0  0  0  0  0  0  0  0  0  0  0  0
   13.7724   -3.5339   18.5649 O   0  0  0  0  0  0  0  0  0  0  0  0
   14.2605   -5.4870   20.8489 H   0  0  0  0  0  0  0  0  0  0  0  0
   12.6388   -4.9957   20.3286 H   0  0  0  0  0  0  0  0  0  0  0  0
   13.3919   -4.2222   21.7259 H   0  0  0  0  0  0  0  0  0  0  0  0
   15.6852   -2.4810   21.0059 H   0  0  0  0  0  0  0  0  0  0  0  0
   15.9057   -0.4248   17.5573 H   0  0  0  0  0  0  0  0  0  0  0  0
   15.9909   -0.0640   19.2455 H   0  0  0  0  0  0  0  0  0  0  0  0
   17.9468   -1.1775   19.5490 H   0  0  0  0  0  0  0  0  0  0  0  0
   19.6017   -0.3691   16.5094 H   0  0  0  0  0  0  0  0  0  0  0  0
   20.4065   -1.7969   15.8171 H   0  0  0  0  0  0  0  0  0  0  0  0
   19.2199   -1.5062   13.6830 H   0  0  0  0  0  0  0  0  0  0  0  0
   20.0860   -0.0272   14.0877 H   0  0  0  0  0  0  0  0  0  0  0  0
   17.6179   -0.0289   13.2879 H   0  0  0  0  0  0  0  0  0  0  0  0
   17.3069    0.2408   16.1142 H   0  0  0  0  0  0  0  0  0  0  0  0
   15.3548    0.8239   15.7175 H   0  0  0  0  0  0  0  0  0  0  0  0
   14.4461   -1.3044   14.7656 H   0  0  0  0  0  0  0  0  0  0  0  0
   13.7187    0.2013   14.3010 H   0  0  0  0  0  0  0  0  0  0  0  0
   15.3710   -2.6842   13.1384 H   0  0  0  0  0  0  0  0  0  0  0  0
   16.1798   -3.9252   11.5769 H   0  0  0  0  0  0  0  0  0  0  0  0
   15.6618    1.0375    9.8660 H   0  0  0  0  0  0  0  0  0  0  0  0
   16.2186   -2.1626   16.0854 H   0  0  0  0  0  0  0  0  0  0  0  0
   17.0912   -2.4133   14.6001 H   0  0  0  0  0  0  0  0  0  0  0  0
  1  2  1  0
  2  3  2  0
  3  4  1  0
  4  5  1  0
  5  6  1  0
  6  7  1  0
  7  8  2  0
  7  9  2  0
  7 10  1  0
 10 11  1  0
 11 12  1  0
 12 13  1  0
 13 14  1  0
 14 15  1  0
 15 16  1  0
 16 17  1  0
 17 18  2  0
 18 19  1  0
 19 20  1  0
 19 21  2  0
 21 22  1  0
 22 23  3  0
 21 24  1  0
 24 25  2  0
 25 26  1  0
 14 27  1  0
  4 28  2  0
 28 29  1  0
 29  2  1  0
 27 10  1  0
 25 17  1  0
  1 30  1  0
  1 31  1  0
  1 32  1  0
  3 33  1  0
  5 34  1  0
  5 35  1  0
  6 36  1  0
 11 37  1  0
 11 38  1  0
 12 39  1  0
 12 40  1  0
 13 41  1  0
 14 42  1  0
 15 43  1  0
 16 44  1  0
 16 45  1  0
 18 46  1  0
 20 47  1  0
 24 48  1  0
 27 49  1  0
 27 50  1  0
M  END
>  <Energy>  (941) 
-126.48490429492803

>  <compound_id>  (941) 
2993

>  <target_id>  (941) 
1

>  <reference_id>  (941) 
4

>  <inspiration_ids>  (941) 
[191, 4]

>  <energy_score>  (941) 
-43.405139719348554

>  <distance_score>  (941) 
1.4408035677515134

>  <path>  (941) 
/opt/xchem-fragalysis-2/maxwin/BulkDock/SCRATCH/505736/C2993-P4/C2993-P4.minimised.mol

>  <scratch_subdir>  (941) 
/opt/xchem-fragalysis-2/maxwin/BulkDock/SCRATCH/505736/C2993-P4

>  <fragmenstein_runtime>  (941) 
22.030473470687866

>  <fragmenstein_outcome>  (941) 
too moved

>  <fragmenstein_mode>  (941) 
expansion

>  <fragmenstein_error>  (941) 


$$$$
C2995-P191
     RDKit          3D

 61 64  0  0  0  0  0  0  0  0999 V2000
   13.1233    7.9018   21.7028 C   0  0  0  0  0  0  0  0  0  0  0  0
   13.1653    6.9735   20.5592 C   0  0  0  0  0  0  0  0  0  0  0  0
   14.1718    6.3444   19.8695 C   0  0  0  0  0  0  0  0  0  0  0  0
   13.5014    5.5865   18.8798 C   0  0  0  0  0  0  0  0  0  0  0  0
   14.1079    4.6895   17.8414 C   0  0  0  0  0  0  0  0  0  0  0  0
   13.2634    3.5049   17.7054 N   0  0  0  0  0  0  0  0  0  0  0  0
   13.4874    2.5354   16.3928 S   0  0  0  0  0  0  0  0  0  0  0  0
   14.9035    2.4055   16.1583 O   0  0  0  0  0  0  0  0  0  0  0  0
   12.6374    1.3886   16.5759 O   0  0  0  0  0  0  0  0  0  0  0  0
   12.8365    3.4710   15.1712 N   0  0  0  0  0  0  0  0  0  0  0  0
   11.5342    4.1293   15.4313 C   0  0  0  0  0  0  0  0  0  0  0  0
   10.9960    4.7805   14.1533 C   0  0  0  0  0  0  0  0  0  0  0  0
   10.6219    3.7800   13.1517 N   0  0  0  0  0  0  0  0  0  0  0  0
   11.6980    2.8220   12.9173 C   0  0  0  0  0  0  0  0  0  0  0  0
   10.9910    1.5627   12.7524 N   0  0  0  0  0  0  0  0  0  0  0  0
   10.7700    0.7545   13.9421 C   0  0  0  0  0  0  0  0  0  0  0  0
   11.8672   -0.1173   14.1148 O   0  0  0  0  0  0  0  0  0  0  0  0
   11.6984   -1.0199   15.1140 C   0  0  0  0  0  0  0  0  0  0  0  0
   10.6763   -1.2247   15.7521 O   0  0  0  0  0  0  0  0  0  0  0  0
   13.0116   -1.6607   15.3825 C   0  0  0  0  0  0  0  0  0  0  0  0
   14.1025   -1.5080   14.5165 C   0  0  0  0  0  0  0  0  0  0  0  0
   15.3609   -1.9655   14.8941 C   0  0  0  0  0  0  0  0  0  0  0  0
   15.5285   -2.5815   16.1322 C   0  0  0  0  0  0  0  0  0  0  0  0
   14.4370   -2.7988   16.9789 C   0  0  0  0  0  0  0  0  0  0  0  0
   14.6392   -3.3401   18.2609 N   0  0  0  0  0  0  0  0  0  0  0  0
   14.9778   -2.5380   19.3649 C   0  0  0  0  0  0  0  0  0  0  0  0
   14.5509   -2.9941   20.5501 N   0  0  0  0  0  0  0  0  0  0  0  0
   14.7597   -2.2104   21.6234 C   0  0  0  0  0  0  0  0  0  0  0  0
   15.4047   -1.0015   21.5610 C   0  0  0  0  0  0  0  0  0  0  0  0
   15.8241   -0.6273   20.3090 C   0  0  0  0  0  0  0  0  0  0  0  0
   15.6167   -1.3643   19.2027 N   0  0  0  0  0  0  0  0  0  0  0  0
   13.1778   -2.3372   16.5933 C   0  0  0  0  0  0  0  0  0  0  0  0
   12.9920    2.8855   13.8018 C   0  0  0  0  0  0  0  0  0  0  0  0
   12.1696    5.7529   18.9682 N   0  0  0  0  0  0  0  0  0  0  0  0
   11.9670    6.6216   20.0244 O   0  0  0  0  0  0  0  0  0  0  0  0
   14.1326    8.1971   22.0059 H   0  0  0  0  0  0  0  0  0  0  0  0
   12.6336    7.4303   22.5604 H   0  0  0  0  0  0  0  0  0  0  0  0
   12.5679    8.8081   21.4426 H   0  0  0  0  0  0  0  0  0  0  0  0
   15.2334    6.4187   20.0538 H   0  0  0  0  0  0  0  0  0  0  0  0
   15.1128    4.3882   18.1556 H   0  0  0  0  0  0  0  0  0  0  0  0
   14.1782    5.2402   16.8981 H   0  0  0  0  0  0  0  0  0  0  0  0
   13.1474    2.9590   18.5589 H   0  0  0  0  0  0  0  0  0  0  0  0
   11.6743    4.9242   16.1697 H   0  0  0  0  0  0  0  0  0  0  0  0
   10.8081    3.4156   15.8346 H   0  0  0  0  0  0  0  0  0  0  0  0
   11.7351    5.4705   13.7282 H   0  0  0  0  0  0  0  0  0  0  0  0
   10.1083    5.3756   14.3946 H   0  0  0  0  0  0  0  0  0  0  0  0
    9.8532    3.2383   13.5334 H   0  0  0  0  0  0  0  0  0  0  0  0
   12.0578    3.0584   11.9069 H   0  0  0  0  0  0  0  0  0  0  0  0
   11.5267    0.9663   12.1203 H   0  0  0  0  0  0  0  0  0  0  0  0
   10.6004    1.3627   14.8350 H   0  0  0  0  0  0  0  0  0  0  0  0
    9.8655    0.1632   13.7735 H   0  0  0  0  0  0  0  0  0  0  0  0
   13.9993   -0.9890   13.5677 H   0  0  0  0  0  0  0  0  0  0  0  0
   16.2201   -1.8027   14.2489 H   0  0  0  0  0  0  0  0  0  0  0  0
   16.5215   -2.8906   16.4525 H   0  0  0  0  0  0  0  0  0  0  0  0
   13.8482   -3.8772   18.6111 H   0  0  0  0  0  0  0  0  0  0  0  0
   14.3636   -2.5941   22.5594 H   0  0  0  0  0  0  0  0  0  0  0  0
   15.5623   -0.3884   22.4359 H   0  0  0  0  0  0  0  0  0  0  0  0
   16.3489    0.3090   20.1469 H   0  0  0  0  0  0  0  0  0  0  0  0
   12.3379   -2.4509   17.2683 H   0  0  0  0  0  0  0  0  0  0  0  0
   13.7102    3.5427   13.2916 H   0  0  0  0  0  0  0  0  0  0  0  0
   13.4727    1.9019   13.8311 H   0  0  0  0  0  0  0  0  0  0  0  0
  1  2  1  0
  2  3  2  0
  3  4  1  0
  4  5  1  0
  5  6  1  0
  6  7  1  0
  7  8  2  0
  7  9  2  0
  7 10  1  0
 10 11  1  0
 11 12  1  0
 12 13  1  0
 13 14  1  0
 14 15  1  0
 15 16  1  0
 16 17  1  0
 17 18  1  0
 18 19  2  0
 18 20  1  0
 20 21  2  0
 21 22  1  0
 22 23  2  0
 23 24  1  0
 24 25  1  0
 25 26  1  0
 26 27  2  0
 27 28  1  0
 28 29  2  0
 29 30  1  0
 30 31  2  0
 24 32  2  0
 14 33  1  0
  4 34  2  0
 34 35  1  0
 35  2  1  0
 33 10  1  0
 32 20  1  0
 31 26  1  0
  1 36  1  0
  1 37  1  0
  1 38  1  0
  3 39  1  0
  5 40  1  0
  5 41  1  0
  6 42  1  0
 11 43  1  0
 11 44  1  0
 12 45  1  0
 12 46  1  0
 13 47  1  0
 14 48  1  0
 15 49  1  0
 16 50  1  0
 16 51  1  0
 21 52  1  0
 22 53  1  0
 23 54  1  0
 25 55  1  0
 28 56  1  0
 29 57  1  0
 30 58  1  0
 32 59  1  0
 33 60  1  0
 33 61  1  0
M  END
>  <Energy>  (942) 
-221.00716863502606

>  <compound_id>  (942) 
2995

>  <target_id>  (942) 
1

>  <reference_id>  (942) 
191

>  <inspiration_ids>  (942) 
[191, 6]

>  <energy_score>  (942) 
-91.76602904489835

>  <distance_score>  (942) 
3.845312606418756

>  <path>  (942) 
/opt/xchem-fragalysis-2/maxwin/BulkDock/SCRATCH/505736/C2995-P191/C2995-P191.minimised.mol

>  <scratch_subdir>  (942) 
/opt/xchem-fragalysis-2/maxwin/BulkDock/SCRATCH/505736/C2995-P191

>  <fragmenstein_runtime>  (942) 
9.15436577796936

>  <fragmenstein_outcome>  (942) 
too moved

>  <fragmenstein_mode>  (942) 
expansion

>  <fragmenstein_error>  (942) 


$$$$
C2995-P6
     RDKit          3D

 61 64  0  0  0  0  0  0  0  0999 V2000
    4.5678    7.0206   17.9188 C   0  0  0  0  0  0  0  0  0  0  0  0
    5.6797    6.0713   17.7380 C   0  0  0  0  0  0  0  0  0  0  0  0
    5.8583    4.9397   16.9834 C   0  0  0  0  0  0  0  0  0  0  0  0
    7.1740    4.5205   17.2877 C   0  0  0  0  0  0  0  0  0  0  0  0
    7.9082    3.3429   16.7428 C   0  0  0  0  0  0  0  0  0  0  0  0
    8.9046    3.8097   15.7859 N   0  0  0  0  0  0  0  0  0  0  0  0
   10.0965    2.7585   15.3556 S   0  0  0  0  0  0  0  0  0  0  0  0
    9.6158    1.4073   15.5184 O   0  0  0  0  0  0  0  0  0  0  0  0
   10.6107    3.2277   14.0900 O   0  0  0  0  0  0  0  0  0  0  0  0
   11.2697    3.0055   16.5292 N   0  0  0  0  0  0  0  0  0  0  0  0
   11.6904    4.4240   16.7953 C   0  0  0  0  0  0  0  0  0  0  0  0
   13.1939    4.5442   17.1431 C   0  0  0  0  0  0  0  0  0  0  0  0
   14.1192    4.0226   16.1096 N   0  0  0  0  0  0  0  0  0  0  0  0
   13.4837    2.9240   15.3738 C   0  0  0  0  0  0  0  0  0  0  0  0
   14.5454    2.1169   14.8455 N   0  0  0  0  0  0  0  0  0  0  0  0
   14.1749    1.5484   13.5590 C   0  0  0  0  0  0  0  0  0  0  0  0
   15.0053    0.4325   13.2508 O   0  0  0  0  0  0  0  0  0  0  0  0
   14.3052   -0.7154   13.0661 C   0  0  0  0  0  0  0  0  0  0  0  0
   14.1739   -1.2419   11.9724 O   0  0  0  0  0  0  0  0  0  0  0  0
   13.7375   -1.2832   14.3200 C   0  0  0  0  0  0  0  0  0  0  0  0
   12.5693   -2.0504   14.2575 C   0  0  0  0  0  0  0  0  0  0  0  0
   12.0644   -2.6384   15.4079 C   0  0  0  0  0  0  0  0  0  0  0  0
   12.7334   -2.4516   16.6166 C   0  0  0  0  0  0  0  0  0  0  0  0
   13.8772   -1.6488   16.7179 C   0  0  0  0  0  0  0  0  0  0  0  0
   14.4385   -1.4050   17.9733 N   0  0  0  0  0  0  0  0  0  0  0  0
   15.1268   -0.3026   18.4770 C   0  0  0  0  0  0  0  0  0  0  0  0
   15.4737   -0.3885   19.7711 N   0  0  0  0  0  0  0  0  0  0  0  0
   16.0871    0.6792   20.3163 C   0  0  0  0  0  0  0  0  0  0  0  0
   16.3677    1.8292   19.6235 C   0  0  0  0  0  0  0  0  0  0  0  0
   15.9744    1.8267   18.3105 C   0  0  0  0  0  0  0  0  0  0  0  0
   15.3546    0.7865   17.7250 N   0  0  0  0  0  0  0  0  0  0  0  0
   14.3747   -1.0808   15.5503 C   0  0  0  0  0  0  0  0  0  0  0  0
   12.4812    2.1280   16.2630 C   0  0  0  0  0  0  0  0  0  0  0  0
    7.7605    5.3539   18.1636 N   0  0  0  0  0  0  0  0  0  0  0  0
    6.8121    6.3220   18.4480 O   0  0  0  0  0  0  0  0  0  0  0  0
    3.7047    6.7354   17.3093 H   0  0  0  0  0  0  0  0  0  0  0  0
    4.8732    8.0296   17.6256 H   0  0  0  0  0  0  0  0  0  0  0  0
    4.2515    7.0456   18.9661 H   0  0  0  0  0  0  0  0  0  0  0  0
    5.1520    4.4793   16.3059 H   0  0  0  0  0  0  0  0  0  0  0  0
    7.2103    2.6882   16.2200 H   0  0  0  0  0  0  0  0  0  0  0  0
    8.3757    2.7729   17.5435 H   0  0  0  0  0  0  0  0  0  0  0  0
    9.1677    4.7886   15.8439 H   0  0  0  0  0  0  0  0  0  0  0  0
   11.0919    4.8060   17.6288 H   0  0  0  0  0  0  0  0  0  0  0  0
   11.4874    5.0536   15.9210 H   0  0  0  0  0  0  0  0  0  0  0  0
   13.3914    4.0099   18.0807 H   0  0  0  0  0  0  0  0  0  0  0  0
   13.4406    5.5950   17.3325 H   0  0  0  0  0  0  0  0  0  0  0  0
   14.3246    4.7634   15.4422 H   0  0  0  0  0  0  0  0  0  0  0  0
   12.9498    3.4041   14.5465 H   0  0  0  0  0  0  0  0  0  0  0  0
   15.3872    2.6722   14.7467 H   0  0  0  0  0  0  0  0  0  0  0  0
   13.1128    1.2686   13.5226 H   0  0  0  0  0  0  0  0  0  0  0  0
   14.3274    2.2956   12.7713 H   0  0  0  0  0  0  0  0  0  0  0  0
   12.0682   -2.2141   13.3063 H   0  0  0  0  0  0  0  0  0  0  0  0
   11.1795   -3.2663   15.3533 H   0  0  0  0  0  0  0  0  0  0  0  0
   12.3630   -2.9619   17.5004 H   0  0  0  0  0  0  0  0  0  0  0  0
   14.2170   -2.0362   18.7294 H   0  0  0  0  0  0  0  0  0  0  0  0
   16.3504    0.5748   21.3647 H   0  0  0  0  0  0  0  0  0  0  0  0
   16.8590    2.6763   20.0788 H   0  0  0  0  0  0  0  0  0  0  0  0
   16.1406    2.6853   17.6670 H   0  0  0  0  0  0  0  0  0  0  0  0
   15.2877   -0.4906   15.5855 H   0  0  0  0  0  0  0  0  0  0  0  0
   12.9184    1.8414   17.2253 H   0  0  0  0  0  0  0  0  0  0  0  0
   12.1767    1.1935   15.7796 H   0  0  0  0  0  0  0  0  0  0  0  0
  1  2  1  0
  2  3  2  0
  3  4  1  0
  4  5  1  0
  5  6  1  0
  6  7  1  0
  7  8  2  0
  7  9  2  0
  7 10  1  0
 10 11  1  0
 11 12  1  0
 12 13  1  0
 13 14  1  0
 14 15  1  0
 15 16  1  0
 16 17  1  0
 17 18  1  0
 18 19  2  0
 18 20  1  0
 20 21  2  0
 21 22  1  0
 22 23  2  0
 23 24  1  0
 24 25  1  0
 25 26  1  0
 26 27  2  0
 27 28  1  0
 28 29  2  0
 29 30  1  0
 30 31  2  0
 24 32  2  0
 14 33  1  0
  4 34  2  0
 34 35  1  0
 35  2  1  0
 33 10  1  0
 32 20  1  0
 31 26  1  0
  1 36  1  0
  1 37  1  0
  1 38  1  0
  3 39  1  0
  5 40  1  0
  5 41  1  0
  6 42  1  0
 11 43  1  0
 11 44  1  0
 12 45  1  0
 12 46  1  0
 13 47  1  0
 14 48  1  0
 15 49  1  0
 16 50  1  0
 16 51  1  0
 21 52  1  0
 22 53  1  0
 23 54  1  0
 25 55  1  0
 28 56  1  0
 29 57  1  0
 30 58  1  0
 32 59  1  0
 33 60  1  0
 33 61  1  0
M  END
>  <Energy>  (943) 
-216.40644821054954

>  <compound_id>  (943) 
2995

>  <target_id>  (943) 
1

>  <reference_id>  (943) 
6

>  <inspiration_ids>  (943) 
[191, 6]

>  <energy_score>  (943) 
-92.21110199861928

>  <distance_score>  (943) 
2.518695937922041

>  <path>  (943) 
/opt/xchem-fragalysis-2/maxwin/BulkDock/SCRATCH/505736/C2995-P6/C2995-P6.minimised.mol

>  <scratch_subdir>  (943) 
/opt/xchem-fragalysis-2/maxwin/BulkDock/SCRATCH/505736/C2995-P6

>  <fragmenstein_runtime>  (943) 
5.780761241912842

>  <fragmenstein_outcome>  (943) 
too moved

>  <fragmenstein_mode>  (943) 
expansion

>  <fragmenstein_error>  (943) 


$$$$
C2996-P191
     RDKit          3D

 72 75  0  0  0  0  0  0  0  0999 V2000
   20.0182   -7.7163   16.5472 C   0  0  0  0  0  0  0  0  0  0  0  0
   18.9488   -6.7817   16.9330 C   0  0  0  0  0  0  0  0  0  0  0  0
   18.0034   -6.0694   16.2403 C   0  0  0  0  0  0  0  0  0  0  0  0
   17.2990   -5.3553   17.2389 C   0  0  0  0  0  0  0  0  0  0  0  0
   16.1506   -4.4227   17.0621 C   0  0  0  0  0  0  0  0  0  0  0  0
   16.6335   -3.1578   16.5185 N   0  0  0  0  0  0  0  0  0  0  0  0
   15.9254   -2.4217   15.2417 S   0  0  0  0  0  0  0  0  0  0  0  0
   15.9801   -3.3297   14.1224 O   0  0  0  0  0  0  0  0  0  0  0  0
   16.4609   -1.0957   15.0829 O   0  0  0  0  0  0  0  0  0  0  0  0
   14.3165   -2.2757   15.7687 N   0  0  0  0  0  0  0  0  0  0  0  0
   13.3831   -1.7375   14.7035 C   0  0  0  0  0  0  0  0  0  0  0  0
   12.3775   -0.6622   15.2390 C   0  0  0  0  0  0  0  0  0  0  0  0
   12.9134    0.4168   16.1193 N   0  0  0  0  0  0  0  0  0  0  0  0
   14.2614    0.0554   16.5473 C   0  0  0  0  0  0  0  0  0  0  0  0
   14.7211    1.0017   17.5320 N   0  0  0  0  0  0  0  0  0  0  0  0
   16.1700    0.8160   17.8124 C   0  0  0  0  0  0  0  0  0  0  0  0
   16.6027   -0.2423   18.8853 C   0  0  0  0  0  0  0  0  0  0  0  0
   17.3691   -1.3675   18.2706 N   0  0  0  0  0  0  0  0  0  0  0  0
   18.9264   -1.3801   18.3069 S   0  0  0  0  0  0  0  0  0  0  0  0
   19.5223    0.2759   18.4199 C   0  0  0  0  0  0  0  0  0  0  0  0
   19.6989   -2.1364   19.2702 O   0  0  0  0  0  0  0  0  0  0  0  0
   19.4740   -1.8809   16.6834 C   0  0  0  0  0  0  0  0  0  0  0  0
   20.1497   -3.0748   16.5150 C   0  0  0  0  0  0  0  0  0  0  0  0
   20.4759   -3.5130   15.2213 C   0  0  0  0  0  0  0  0  0  0  0  0
   20.1045   -2.8094   14.0681 C   0  0  0  0  0  0  0  0  0  0  0  0
   20.3464   -3.2675   12.7716 N   0  0  0  0  0  0  0  0  0  0  0  0
   19.1857   -3.2664   11.8471 C   0  0  0  0  0  0  0  0  0  0  0  0
   19.6738   -3.2466   10.3729 C   0  0  0  0  0  0  0  0  0  0  0  0
   21.0720   -3.6932   10.1598 N   0  0  0  0  0  0  0  0  0  0  0  0
   21.3390   -4.8216   11.0709 C   0  0  0  0  0  0  0  0  0  0  0  0
   21.2319   -4.4376   12.5711 C   0  0  0  0  0  0  0  0  0  0  0  0
   19.4952   -1.5712   14.2809 C   0  0  0  0  0  0  0  0  0  0  0  0
   19.2028   -1.0990   15.5685 C   0  0  0  0  0  0  0  0  0  0  0  0
   14.2025   -1.4321   16.9850 C   0  0  0  0  0  0  0  0  0  0  0  0
   17.7809   -5.6319   18.4591 N   0  0  0  0  0  0  0  0  0  0  0  0
   18.8208   -6.5226   18.2609 O   0  0  0  0  0  0  0  0  0  0  0  0
   19.8632   -8.6928   17.0160 H   0  0  0  0  0  0  0  0  0  0  0  0
   20.0424   -7.8592   15.4624 H   0  0  0  0  0  0  0  0  0  0  0  0
   20.9940   -7.3328   16.8608 H   0  0  0  0  0  0  0  0  0  0  0  0
   17.8468   -6.0558   15.1728 H   0  0  0  0  0  0  0  0  0  0  0  0
   15.4113   -4.8981   16.4257 H   0  0  0  0  0  0  0  0  0  0  0  0
   15.6595   -4.2291   18.0228 H   0  0  0  0  0  0  0  0  0  0  0  0
   16.9020   -2.4936   17.2671 H   0  0  0  0  0  0  0  0  0  0  0  0
   13.9581   -1.2862   13.8860 H   0  0  0  0  0  0  0  0  0  0  0  0
   12.8241   -2.5827   14.2870 H   0  0  0  0  0  0  0  0  0  0  0  0
   11.8610   -0.2014   14.3889 H   0  0  0  0  0  0  0  0  0  0  0  0
   11.6025   -1.1829   15.8159 H   0  0  0  0  0  0  0  0  0  0  0  0
   12.9900    1.2890   15.5962 H   0  0  0  0  0  0  0  0  0  0  0  0
   14.8702    0.2289   15.6614 H   0  0  0  0  0  0  0  0  0  0  0  0
   14.1654    0.9005   18.3770 H   0  0  0  0  0  0  0  0  0  0  0  0
   16.7384    0.7177   16.8823 H   0  0  0  0  0  0  0  0  0  0  0  0
   16.4850    1.7853   18.2212 H   0  0  0  0  0  0  0  0  0  0  0  0
   15.7182   -0.6549   19.3833 H   0  0  0  0  0  0  0  0  0  0  0  0
   17.1736    0.2386   19.6864 H   0  0  0  0  0  0  0  0  0  0  0  0
   19.3809    0.6357   19.4414 H   0  0  0  0  0  0  0  0  0  0  0  0
   20.5940    0.2742   18.2031 H   0  0  0  0  0  0  0  0  0  0  0  0
   19.0094    0.9299   17.7156 H   0  0  0  0  0  0  0  0  0  0  0  0
   20.3912   -3.7037   17.3698 H   0  0  0  0  0  0  0  0  0  0  0  0
   20.9846   -4.4698   15.1504 H   0  0  0  0  0  0  0  0  0  0  0  0
   18.5974   -4.1761   12.0243 H   0  0  0  0  0  0  0  0  0  0  0  0
   18.5129   -2.4155   11.9955 H   0  0  0  0  0  0  0  0  0  0  0  0
   18.9976   -3.8557    9.7614 H   0  0  0  0  0  0  0  0  0  0  0  0
   19.5944   -2.2237    9.9855 H   0  0  0  0  0  0  0  0  0  0  0  0
   21.6571   -2.9231   10.4951 H   0  0  0  0  0  0  0  0  0  0  0  0
   22.3408   -5.2190   10.8728 H   0  0  0  0  0  0  0  0  0  0  0  0
   20.6401   -5.6379   10.8470 H   0  0  0  0  0  0  0  0  0  0  0  0
   20.8617   -5.3137   13.1170 H   0  0  0  0  0  0  0  0  0  0  0  0
   22.2333   -4.1870   12.9415 H   0  0  0  0  0  0  0  0  0  0  0  0
   19.2379   -0.9358   13.4372 H   0  0  0  0  0  0  0  0  0  0  0  0
   18.6994   -0.1415   15.6590 H   0  0  0  0  0  0  0  0  0  0  0  0
   14.9493   -1.7203   17.7111 H   0  0  0  0  0  0  0  0  0  0  0  0
   13.2603   -1.6709   17.4956 H   0  0  0  0  0  0  0  0  0  0  0  0
  1  2  1  0
  2  3  2  0
  3  4  1  0
  4  5  1  0
  5  6  1  0
  6  7  1  0
  7  8  2  0
  7  9  2  0
  7 10  1  0
 10 11  1  0
 11 12  1  0
 12 13  1  0
 13 14  1  0
 14 15  1  0
 15 16  1  0
 16 17  1  0
 17 18  1  0
 18 19  2  0
 19 20  1  0
 19 21  2  0
 19 22  1  0
 22 23  2  0
 23 24  1  0
 24 25  2  0
 25 26  1  0
 26 27  1  0
 27 28  1  0
 28 29  1  0
 29 30  1  0
 30 31  1  0
 25 32  1  0
 32 33  2  0
 14 34  1  0
  4 35  2  0
 35 36  1  0
 36  2  1  0
 34 10  1  0
 33 22  1  0
 31 26  1  0
  1 37  1  0
  1 38  1  0
  1 39  1  0
  3 40  1  0
  5 41  1  0
  5 42  1  0
  6 43  1  0
 11 44  1  0
 11 45  1  0
 12 46  1  0
 12 47  1  0
 13 48  1  0
 14 49  1  0
 15 50  1  0
 16 51  1  0
 16 52  1  0
 17 53  1  0
 17 54  1  0
 20 55  1  0
 20 56  1  0
 20 57  1  0
 23 58  1  0
 24 59  1  0
 27 60  1  0
 27 61  1  0
 28 62  1  0
 28 63  1  0
 29 64  1  0
 30 65  1  0
 30 66  1  0
 31 67  1  0
 31 68  1  0
 32 69  1  0
 33 70  1  0
 34 71  1  0
 34 72  1  0
M  END
>  <Energy>  (944) 
-22.366255204699353

>  <compound_id>  (944) 
2996

>  <target_id>  (944) 
1

>  <reference_id>  (944) 
191

>  <inspiration_ids>  (944) 
[191, 8]

>  <energy_score>  (944) 
-92.35657711564681

>  <distance_score>  (944) 
2.2657559906178135

>  <path>  (944) 
/opt/xchem-fragalysis-2/maxwin/BulkDock/SCRATCH/505736/C2996-P191/C2996-P191.minimised.mol

>  <scratch_subdir>  (944) 
/opt/xchem-fragalysis-2/maxwin/BulkDock/SCRATCH/505736/C2996-P191

>  <fragmenstein_runtime>  (944) 
9.94925570487976

>  <fragmenstein_outcome>  (944) 
too moved

>  <fragmenstein_mode>  (944) 
expansion

>  <fragmenstein_error>  (944) 


$$$$
C2996-P8
     RDKit          3D

 72 75  0  0  0  0  0  0  0  0999 V2000
   20.2360   -6.8035   14.7876 C   0  0  0  0  0  0  0  0  0  0  0  0
   19.5104   -6.1906   15.9127 C   0  0  0  0  0  0  0  0  0  0  0  0
   18.1960   -6.1758   16.3084 C   0  0  0  0  0  0  0  0  0  0  0  0
   18.1922   -5.3821   17.4815 C   0  0  0  0  0  0  0  0  0  0  0  0
   17.0387   -5.0199   18.3588 C   0  0  0  0  0  0  0  0  0  0  0  0
   16.1679   -4.0291   17.6602 N   0  0  0  0  0  0  0  0  0  0  0  0
   14.8253   -3.6374   18.5957 S   0  0  0  0  0  0  0  0  0  0  0  0
   15.3028   -3.0971   19.8423 O   0  0  0  0  0  0  0  0  0  0  0  0
   13.9914   -4.8154   18.5381 O   0  0  0  0  0  0  0  0  0  0  0  0
   14.1433   -2.4331   17.6768 N   0  0  0  0  0  0  0  0  0  0  0  0
   13.5615   -2.7777   16.3645 C   0  0  0  0  0  0  0  0  0  0  0  0
   12.7483   -1.6070   15.7709 C   0  0  0  0  0  0  0  0  0  0  0  0
   13.3262   -0.2686   15.9221 N   0  0  0  0  0  0  0  0  0  0  0  0
   14.7046   -0.3118   16.3985 C   0  0  0  0  0  0  0  0  0  0  0  0
   15.0645    1.0972   16.4480 N   0  0  0  0  0  0  0  0  0  0  0  0
   16.3139    1.3926   15.7196 C   0  0  0  0  0  0  0  0  0  0  0  0
   17.6411    1.2190   16.4966 C   0  0  0  0  0  0  0  0  0  0  0  0
   17.7129   -0.1223   17.0973 N   0  0  0  0  0  0  0  0  0  0  0  0
   19.1077   -0.6881   17.4409 S   0  0  0  0  0  0  0  0  0  0  0  0
   18.9371   -1.8133   18.7854 C   0  0  0  0  0  0  0  0  0  0  0  0
   20.2490    0.1557   17.7405 O   0  0  0  0  0  0  0  0  0  0  0  0
   19.5531   -1.6860   16.0351 C   0  0  0  0  0  0  0  0  0  0  0  0
   20.8581   -1.6679   15.5602 C   0  0  0  0  0  0  0  0  0  0  0  0
   21.1748   -2.3649   14.3875 C   0  0  0  0  0  0  0  0  0  0  0  0
   20.2132   -3.0858   13.6554 C   0  0  0  0  0  0  0  0  0  0  0  0
   20.5438   -3.7702   12.4964 N   0  0  0  0  0  0  0  0  0  0  0  0
   19.5222   -4.1970   11.5259 C   0  0  0  0  0  0  0  0  0  0  0  0
   20.1302   -4.3639   10.1151 C   0  0  0  0  0  0  0  0  0  0  0  0
   21.2506   -5.3187   10.0248 N   0  0  0  0  0  0  0  0  0  0  0  0
   22.0010   -5.3894   11.2892 C   0  0  0  0  0  0  0  0  0  0  0  0
   21.9366   -4.1312   12.1854 C   0  0  0  0  0  0  0  0  0  0  0  0
   18.9028   -3.0712   14.1632 C   0  0  0  0  0  0  0  0  0  0  0  0
   18.5695   -2.3839   15.3375 C   0  0  0  0  0  0  0  0  0  0  0  0
   14.7621   -1.0740   17.7597 C   0  0  0  0  0  0  0  0  0  0  0  0
   19.4303   -4.9657   17.7832 N   0  0  0  0  0  0  0  0  0  0  0  0
   20.2521   -5.4688   16.7928 O   0  0  0  0  0  0  0  0  0  0  0  0
   20.5619   -7.8138   15.0527 H   0  0  0  0  0  0  0  0  0  0  0  0
   19.5952   -6.8712   13.9023 H   0  0  0  0  0  0  0  0  0  0  0  0
   21.1207   -6.2169   14.5218 H   0  0  0  0  0  0  0  0  0  0  0  0
   17.3709   -6.6694   15.8175 H   0  0  0  0  0  0  0  0  0  0  0  0
   16.4739   -5.9302   18.5844 H   0  0  0  0  0  0  0  0  0  0  0  0
   17.4035   -4.6016   19.3032 H   0  0  0  0  0  0  0  0  0  0  0  0
   15.8468   -4.4117   16.7752 H   0  0  0  0  0  0  0  0  0  0  0  0
   14.3739   -3.0345   15.6763 H   0  0  0  0  0  0  0  0  0  0  0  0
   12.9022   -3.6473   16.4560 H   0  0  0  0  0  0  0  0  0  0  0  0
   12.5754   -1.8095   14.7070 H   0  0  0  0  0  0  0  0  0  0  0  0
   11.7606   -1.5873   16.2435 H   0  0  0  0  0  0  0  0  0  0  0  0
   13.3091    0.2541   15.0513 H   0  0  0  0  0  0  0  0  0  0  0  0
   15.3097   -0.8557   15.6614 H   0  0  0  0  0  0  0  0  0  0  0  0
   15.1953    1.3564   17.4250 H   0  0  0  0  0  0  0  0  0  0  0  0
   16.2596    2.4460   15.4182 H   0  0  0  0  0  0  0  0  0  0  0  0
   16.3538    0.8276   14.7791 H   0  0  0  0  0  0  0  0  0  0  0  0
   17.7102    1.9720   17.2898 H   0  0  0  0  0  0  0  0  0  0  0  0
   18.4700    1.3859   15.7989 H   0  0  0  0  0  0  0  0  0  0  0  0
   18.7665   -1.2339   19.6957 H   0  0  0  0  0  0  0  0  0  0  0  0
   18.0870   -2.4613   18.6020 H   0  0  0  0  0  0  0  0  0  0  0  0
   19.8589   -2.3877   18.8900 H   0  0  0  0  0  0  0  0  0  0  0  0
   21.6337   -1.1060   16.0744 H   0  0  0  0  0  0  0  0  0  0  0  0
   22.2026   -2.3051   14.0402 H   0  0  0  0  0  0  0  0  0  0  0  0
   19.0840   -5.1462   11.8554 H   0  0  0  0  0  0  0  0  0  0  0  0
   18.7191   -3.4543   11.4506 H   0  0  0  0  0  0  0  0  0  0  0  0
   19.3500   -4.6805    9.4154 H   0  0  0  0  0  0  0  0  0  0  0  0
   20.4855   -3.3833    9.7722 H   0  0  0  0  0  0  0  0  0  0  0  0
   21.8694   -5.0150    9.2739 H   0  0  0  0  0  0  0  0  0  0  0  0
   23.0477   -5.6257   11.0668 H   0  0  0  0  0  0  0  0  0  0  0  0
   21.6071   -6.2419   11.8563 H   0  0  0  0  0  0  0  0  0  0  0  0
   22.4972   -4.3585   13.1000 H   0  0  0  0  0  0  0  0  0  0  0  0
   22.4281   -3.2895   11.6828 H   0  0  0  0  0  0  0  0  0  0  0  0
   18.1073   -3.6153   13.6621 H   0  0  0  0  0  0  0  0  0  0  0  0
   17.5423   -2.3895   15.6901 H   0  0  0  0  0  0  0  0  0  0  0  0
   15.7890   -1.1570   18.1126 H   0  0  0  0  0  0  0  0  0  0  0  0
   14.2104   -0.5107   18.5226 H   0  0  0  0  0  0  0  0  0  0  0  0
  1  2  1  0
  2  3  2  0
  3  4  1  0
  4  5  1  0
  5  6  1  0
  6  7  1  0
  7  8  2  0
  7  9  2  0
  7 10  1  0
 10 11  1  0
 11 12  1  0
 12 13  1  0
 13 14  1  0
 14 15  1  0
 15 16  1  0
 16 17  1  0
 17 18  1  0
 18 19  2  0
 19 20  1  0
 19 21  2  0
 19 22  1  0
 22 23  2  0
 23 24  1  0
 24 25  2  0
 25 26  1  0
 26 27  1  0
 27 28  1  0
 28 29  1  0
 29 30  1  0
 30 31  1  0
 25 32  1  0
 32 33  2  0
 14 34  1  0
  4 35  2  0
 35 36  1  0
 36  2  1  0
 34 10  1  0
 33 22  1  0
 31 26  1  0
  1 37  1  0
  1 38  1  0
  1 39  1  0
  3 40  1  0
  5 41  1  0
  5 42  1  0
  6 43  1  0
 11 44  1  0
 11 45  1  0
 12 46  1  0
 12 47  1  0
 13 48  1  0
 14 49  1  0
 15 50  1  0
 16 51  1  0
 16 52  1  0
 17 53  1  0
 17 54  1  0
 20 55  1  0
 20 56  1  0
 20 57  1  0
 23 58  1  0
 24 59  1  0
 27 60  1  0
 27 61  1  0
 28 62  1  0
 28 63  1  0
 29 64  1  0
 30 65  1  0
 30 66  1  0
 31 67  1  0
 31 68  1  0
 32 69  1  0
 33 70  1  0
 34 71  1  0
 34 72  1  0
M  END
>  <Energy>  (945) 
-43.755106375379668

>  <compound_id>  (945) 
2996

>  <target_id>  (945) 
1

>  <reference_id>  (945) 
8

>  <inspiration_ids>  (945) 
[191, 8]

>  <energy_score>  (945) 
-113.93275636967508

>  <distance_score>  (945) 
1.924045656643176

>  <path>  (945) 
/opt/xchem-fragalysis-2/maxwin/BulkDock/SCRATCH/505736/C2996-P8/C2996-P8.minimised.mol

>  <scratch_subdir>  (945) 
/opt/xchem-fragalysis-2/maxwin/BulkDock/SCRATCH/505736/C2996-P8

>  <fragmenstein_runtime>  (945) 
11.140390634536743

>  <fragmenstein_outcome>  (945) 
too moved

>  <fragmenstein_mode>  (945) 
expansion

>  <fragmenstein_error>  (945) 


$$$$
C2998-P191
     RDKit          3D

 40 43  0  0  0  0  0  0  0  0999 V2000
   12.4517   -0.9221   15.8942 C   0  0  0  0  0  0  0  0  0  0  0  0
   12.9499   -2.3489   15.7783 C   0  0  0  0  0  0  0  0  0  0  0  0
   13.1339   -3.0372   17.1105 C   0  0  0  0  0  0  0  0  0  0  0  0
   14.6342   -3.0077   17.3679 C   0  0  0  0  0  0  0  0  0  0  0  0
   14.9823   -4.1821   18.2785 C   0  0  0  0  0  0  0  0  0  0  0  0
   16.4264   -4.0729   18.6115 C   0  0  0  0  0  0  0  0  0  0  0  0
   17.1180   -5.0123   18.9779 O   0  0  0  0  0  0  0  0  0  0  0  0
   17.0920   -2.7734   18.5077 N   0  0  0  0  0  0  0  0  0  0  0  0
   18.4057   -2.6684   18.6336 N   0  0  0  0  0  0  0  0  0  0  0  0
   18.6856   -1.0846   18.1777 S   0  0  0  0  0  0  0  0  0  0  0  0
   18.8902   -1.4318   16.4635 N   0  0  0  0  0  0  0  0  0  0  0  0
   19.7541   -0.4721   15.7382 C   0  0  0  0  0  0  0  0  0  0  0  0
   20.0850   -0.8476   14.2791 C   0  0  0  0  0  0  0  0  0  0  0  0
   19.0299   -1.6551   13.6598 N   0  0  0  0  0  0  0  0  0  0  0  0
   18.8983   -2.9100   14.4157 C   0  0  0  0  0  0  0  0  0  0  0  0
   19.1301   -2.7953   15.9427 C   0  0  0  0  0  0  0  0  0  0  0  0
   17.0890   -0.5794   17.9292 N   0  0  0  0  0  0  0  0  0  0  0  0
   16.3593   -1.6590   18.2051 C   0  0  0  0  0  0  0  0  0  0  0  0
   15.0285   -1.7701   18.0213 N   0  0  0  0  0  0  0  0  0  0  0  0
   15.1144   -3.1810   15.9987 N   0  0  0  0  0  0  0  0  0  0  0  0
   14.2457   -2.3237   15.1820 O   0  0  0  0  0  0  0  0  0  0  0  0
   12.4036   -0.4625   14.9004 H   0  0  0  0  0  0  0  0  0  0  0  0
   11.4493   -0.8896   16.3290 H   0  0  0  0  0  0  0  0  0  0  0  0
   13.1107   -0.2861   16.4890 H   0  0  0  0  0  0  0  0  0  0  0  0
   12.2745   -2.9209   15.1320 H   0  0  0  0  0  0  0  0  0  0  0  0
   12.5590   -2.5733   17.9016 H   0  0  0  0  0  0  0  0  0  0  0  0
   12.7700   -4.0702   17.0164 H   0  0  0  0  0  0  0  0  0  0  0  0
   14.7958   -5.1469   17.7933 H   0  0  0  0  0  0  0  0  0  0  0  0
   14.4155   -4.1457   19.2163 H   0  0  0  0  0  0  0  0  0  0  0  0
   20.7030   -0.3337   16.2727 H   0  0  0  0  0  0  0  0  0  0  0  0
   19.2419    0.4988   15.7317 H   0  0  0  0  0  0  0  0  0  0  0  0
   21.0336   -1.3981   14.2381 H   0  0  0  0  0  0  0  0  0  0  0  0
   20.2303    0.0662   13.6922 H   0  0  0  0  0  0  0  0  0  0  0  0
   18.1545   -1.1391   13.7695 H   0  0  0  0  0  0  0  0  0  0  0  0
   19.5907   -3.6533   14.0034 H   0  0  0  0  0  0  0  0  0  0  0  0
   17.8879   -3.2917   14.2354 H   0  0  0  0  0  0  0  0  0  0  0  0
   20.1600   -3.0929   16.1803 H   0  0  0  0  0  0  0  0  0  0  0  0
   18.4702   -3.5397   16.3974 H   0  0  0  0  0  0  0  0  0  0  0  0
   14.6848   -0.9463   17.5438 H   0  0  0  0  0  0  0  0  0  0  0  0
   16.0099   -2.6904   15.9157 H   0  0  0  0  0  0  0  0  0  0  0  0
  1  2  1  0
  2  3  1  0
  3  4  1  0
  4  5  1  0
  5  6  1  0
  6  7  2  0
  6  8  1  0
  8  9  1  0
  9 10  2  0
 10 11  1  0
 11 12  1  0
 12 13  1  0
 13 14  1  0
 14 15  1  0
 15 16  1  0
 10 17  1  0
 17 18  2  0
 18 19  1  0
  4 20  1  0
 20 21  1  0
 21  2  1  0
 19  4  1  0
 18  8  1  0
 16 11  1  0
  1 22  1  0
  1 23  1  0
  1 24  1  0
  2 25  1  0
  3 26  1  0
  3 27  1  0
  5 28  1  0
  5 29  1  0
 12 30  1  0
 12 31  1  0
 13 32  1  0
 13 33  1  0
 14 34  1  0
 15 35  1  0
 15 36  1  0
 16 37  1  0
 16 38  1  0
 19 39  1  0
 20 40  1  0
M  END
>  <Energy>  (946) 
-94.906956154535521

>  <compound_id>  (946) 
2998

>  <target_id>  (946) 
1

>  <reference_id>  (946) 
191

>  <inspiration_ids>  (946) 
[191, 15]

>  <energy_score>  (946) 
-123.31057265321351

>  <distance_score>  (946) 
1.4683567769177341

>  <path>  (946) 
/opt/xchem-fragalysis-2/maxwin/BulkDock/SCRATCH/505736/C2998-P191/C2998-P191.minimised.mol

>  <scratch_subdir>  (946) 
/opt/xchem-fragalysis-2/maxwin/BulkDock/SCRATCH/505736/C2998-P191

>  <fragmenstein_runtime>  (946) 
3.9988813400268555

>  <fragmenstein_outcome>  (946) 
too moved

>  <fragmenstein_mode>  (946) 
expansion

>  <fragmenstein_error>  (946) 


$$$$
C2998-P15
     RDKit          3D

 40 43  0  0  0  0  0  0  0  0999 V2000
   12.3710   -1.1217   15.8636 C   0  0  0  0  0  0  0  0  0  0  0  0
   12.8500   -2.5605   15.8521 C   0  0  0  0  0  0  0  0  0  0  0  0
   13.0778   -3.1469   17.2268 C   0  0  0  0  0  0  0  0  0  0  0  0
   14.5879   -3.1182   17.4215 C   0  0  0  0  0  0  0  0  0  0  0  0
   14.9590   -4.1455   18.4809 C   0  0  0  0  0  0  0  0  0  0  0  0
   16.4263   -4.0469   18.6843 C   0  0  0  0  0  0  0  0  0  0  0  0
   17.1283   -4.9708   19.0700 O   0  0  0  0  0  0  0  0  0  0  0  0
   17.0963   -2.7727   18.4315 N   0  0  0  0  0  0  0  0  0  0  0  0
   18.4145   -2.6655   18.5051 N   0  0  0  0  0  0  0  0  0  0  0  0
   18.6780   -1.1006   17.9766 S   0  0  0  0  0  0  0  0  0  0  0  0
   18.8708   -1.5040   16.2818 N   0  0  0  0  0  0  0  0  0  0  0  0
   19.8508   -0.6810   15.5466 C   0  0  0  0  0  0  0  0  0  0  0  0
   19.7032   -0.7910   14.0202 C   0  0  0  0  0  0  0  0  0  0  0  0
   19.7920   -2.1711   13.5354 N   0  0  0  0  0  0  0  0  0  0  0  0
   18.8192   -2.9992   14.2564 C   0  0  0  0  0  0  0  0  0  0  0  0
   18.9624   -2.8982   15.7890 C   0  0  0  0  0  0  0  0  0  0  0  0
   17.0786   -0.6191   17.7128 N   0  0  0  0  0  0  0  0  0  0  0  0
   16.3574   -1.6868   18.0483 C   0  0  0  0  0  0  0  0  0  0  0  0
   15.0266   -1.8091   17.8802 N   0  0  0  0  0  0  0  0  0  0  0  0
   14.9546   -3.5048   16.0622 N   0  0  0  0  0  0  0  0  0  0  0  0
   14.1338   -2.6083   15.2313 O   0  0  0  0  0  0  0  0  0  0  0  0
   12.3370   -0.7322   14.8398 H   0  0  0  0  0  0  0  0  0  0  0  0
   11.3652   -1.0482   16.2849 H   0  0  0  0  0  0  0  0  0  0  0  0
   13.0270   -0.4511   16.4219 H   0  0  0  0  0  0  0  0  0  0  0  0
   12.1502   -3.1736   15.2733 H   0  0  0  0  0  0  0  0  0  0  0  0
   12.5462   -2.6185   18.0006 H   0  0  0  0  0  0  0  0  0  0  0  0
   12.6995   -4.1793   17.2304 H   0  0  0  0  0  0  0  0  0  0  0  0
   14.7043   -5.1610   18.1810 H   0  0  0  0  0  0  0  0  0  0  0  0
   14.4682   -3.9345   19.4384 H   0  0  0  0  0  0  0  0  0  0  0  0
   20.8706   -0.9629   15.8416 H   0  0  0  0  0  0  0  0  0  0  0  0
   19.7234    0.3768   15.8105 H   0  0  0  0  0  0  0  0  0  0  0  0
   20.4925   -0.2007   13.5418 H   0  0  0  0  0  0  0  0  0  0  0  0
   18.7458   -0.3530   13.7099 H   0  0  0  0  0  0  0  0  0  0  0  0
   19.5796   -2.1959   12.5386 H   0  0  0  0  0  0  0  0  0  0  0  0
   18.9556   -4.0433   13.9535 H   0  0  0  0  0  0  0  0  0  0  0  0
   17.8013   -2.7123   13.9622 H   0  0  0  0  0  0  0  0  0  0  0  0
   19.9173   -3.3409   16.1013 H   0  0  0  0  0  0  0  0  0  0  0  0
   18.1645   -3.5225   16.2005 H   0  0  0  0  0  0  0  0  0  0  0  0
   14.6962   -1.0523   17.2955 H   0  0  0  0  0  0  0  0  0  0  0  0
   15.8924   -3.1475   15.8642 H   0  0  0  0  0  0  0  0  0  0  0  0
  1  2  1  0
  2  3  1  0
  3  4  1  0
  4  5  1  0
  5  6  1  0
  6  7  2  0
  6  8  1  0
  8  9  1  0
  9 10  2  0
 10 11  1  0
 11 12  1  0
 12 13  1  0
 13 14  1  0
 14 15  1  0
 15 16  1  0
 10 17  1  0
 17 18  2  0
 18 19  1  0
  4 20  1  0
 20 21  1  0
 21  2  1  0
 19  4  1  0
 18  8  1  0
 16 11  1  0
  1 22  1  0
  1 23  1  0
  1 24  1  0
  2 25  1  0
  3 26  1  0
  3 27  1  0
  5 28  1  0
  5 29  1  0
 12 30  1  0
 12 31  1  0
 13 32  1  0
 13 33  1  0
 14 34  1  0
 15 35  1  0
 15 36  1  0
 16 37  1  0
 16 38  1  0
 19 39  1  0
 20 40  1  0
M  END
>  <Energy>  (947) 
-101.15609710708617

>  <compound_id>  (947) 
2998

>  <target_id>  (947) 
1

>  <reference_id>  (947) 
15

>  <inspiration_ids>  (947) 
[191, 15]

>  <energy_score>  (947) 
-129.55971360576382

>  <distance_score>  (947) 
1.4380952232264856

>  <path>  (947) 
/opt/xchem-fragalysis-2/maxwin/BulkDock/SCRATCH/505736/C2998-P15/C2998-P15.minimised.mol

>  <scratch_subdir>  (947) 
/opt/xchem-fragalysis-2/maxwin/BulkDock/SCRATCH/505736/C2998-P15

>  <fragmenstein_runtime>  (947) 
4.217007875442505

>  <fragmenstein_outcome>  (947) 
too moved

>  <fragmenstein_mode>  (947) 
expansion

>  <fragmenstein_error>  (947) 


$$$$
C2999-P191
     RDKit          3D

 47 50  0  0  0  0  0  0  0  0999 V2000
   18.8527   -1.6120   18.8766 O   0  0  0  0  0  0  0  0  0  0  0  0
   18.2925   -2.5599   17.9397 S   0  0  0  0  0  0  0  0  0  0  0  0
   18.2577   -3.9730   18.2454 O   0  0  0  0  0  0  0  0  0  0  0  0
   19.0779   -2.3792   16.4777 N   0  0  0  0  0  0  0  0  0  0  0  0
   19.9818   -1.2293   16.2678 C   0  0  0  0  0  0  0  0  0  0  0  0
   20.4921   -1.1737   14.8082 C   0  0  0  0  0  0  0  0  0  0  0  0
   19.4984   -1.6238   13.8244 N   0  0  0  0  0  0  0  0  0  0  0  0
   19.0896   -3.0143   14.0905 C   0  0  0  0  0  0  0  0  0  0  0  0
   19.2615   -3.5021   15.5487 C   0  0  0  0  0  0  0  0  0  0  0  0
   16.6958   -2.1039   17.4980 N   0  0  0  0  0  0  0  0  0  0  0  0
   16.0650   -2.9731   16.4830 C   0  0  0  0  0  0  0  0  0  0  0  0
   14.6148   -3.1453   16.6993 C   0  0  0  0  0  0  0  0  0  0  0  0
   14.0975   -3.9452   17.6470 N   0  0  0  0  0  0  0  0  0  0  0  0
   12.7120   -3.9822   17.3164 O   0  0  0  0  0  0  0  0  0  0  0  0
   12.4797   -3.2322   16.2029 C   0  0  0  0  0  0  0  0  0  0  0  0
   11.4688   -2.9307   15.2972 C   0  0  0  0  0  0  0  0  0  0  0  0
   12.1224   -2.1071   14.4121 C   0  0  0  0  0  0  0  0  0  0  0  0
   13.4522   -1.9706   14.6853 O   0  0  0  0  0  0  0  0  0  0  0  0
   13.6311   -2.6802   15.8224 C   0  0  0  0  0  0  0  0  0  0  0  0
   16.4873   -0.7172   17.5117 N   0  0  0  0  0  0  0  0  0  0  0  0
   15.3399   -0.3168   18.3262 C   0  0  0  0  0  0  0  0  0  0  0  0
   14.5193    0.8295   17.7172 C   0  0  0  0  0  0  0  0  0  0  0  0
   14.1883    0.6329   16.3032 N   0  0  0  0  0  0  0  0  0  0  0  0
   15.4227    0.5083   15.5160 C   0  0  0  0  0  0  0  0  0  0  0  0
   16.6842    0.0339   16.2709 C   0  0  0  0  0  0  0  0  0  0  0  0
   19.4520   -0.2996   16.4936 H   0  0  0  0  0  0  0  0  0  0  0  0
   20.8411   -1.3062   16.9430 H   0  0  0  0  0  0  0  0  0  0  0  0
   21.3952   -1.7904   14.7128 H   0  0  0  0  0  0  0  0  0  0  0  0
   20.7947   -0.1464   14.5765 H   0  0  0  0  0  0  0  0  0  0  0  0
   19.8774   -1.5529   12.8801 H   0  0  0  0  0  0  0  0  0  0  0  0
   19.6416   -3.6938   13.4303 H   0  0  0  0  0  0  0  0  0  0  0  0
   18.0345   -3.0952   13.8083 H   0  0  0  0  0  0  0  0  0  0  0  0
   18.5604   -4.3197   15.7324 H   0  0  0  0  0  0  0  0  0  0  0  0
   20.2718   -3.9055   15.6899 H   0  0  0  0  0  0  0  0  0  0  0  0
   16.2600   -2.5816   15.4787 H   0  0  0  0  0  0  0  0  0  0  0  0
   16.4975   -3.9789   16.5060 H   0  0  0  0  0  0  0  0  0  0  0  0
   10.4456   -3.2507   15.2365 H   0  0  0  0  0  0  0  0  0  0  0  0
   11.7909   -1.5687   13.5350 H   0  0  0  0  0  0  0  0  0  0  0  0
   15.7050   -0.0055   19.3122 H   0  0  0  0  0  0  0  0  0  0  0  0
   14.6602   -1.1561   18.5105 H   0  0  0  0  0  0  0  0  0  0  0  0
   15.0637    1.7764   17.8291 H   0  0  0  0  0  0  0  0  0  0  0  0
   13.5957    0.9518   18.2857 H   0  0  0  0  0  0  0  0  0  0  0  0
   13.6563   -0.2281   16.2080 H   0  0  0  0  0  0  0  0  0  0  0  0
   15.6372    1.4848   15.0651 H   0  0  0  0  0  0  0  0  0  0  0  0
   15.2323   -0.1685   14.6767 H   0  0  0  0  0  0  0  0  0  0  0  0
   17.3271   -0.4975   15.5639 H   0  0  0  0  0  0  0  0  0  0  0  0
   17.2478    0.9341   16.5505 H   0  0  0  0  0  0  0  0  0  0  0  0
  1  2  2  0
  2  3  2  0
  2  4  1  0
  4  5  1  0
  5  6  1  0
  6  7  1  0
  7  8  1  0
  8  9  1  0
  2 10  1  0
 10 11  1  0
 11 12  1  0
 12 13  2  0
 13 14  1  0
 14 15  1  0
 15 16  1  0
 16 17  2  0
 17 18  1  0
 18 19  1  0
 10 20  1  0
 20 21  1  0
 21 22  1  0
 22 23  1  0
 23 24  1  0
 24 25  1  0
  9  4  1  0
 19 12  1  0
 25 20  1  0
 19 15  2  0
  5 26  1  0
  5 27  1  0
  6 28  1  0
  6 29  1  0
  7 30  1  0
  8 31  1  0
  8 32  1  0
  9 33  1  0
  9 34  1  0
 11 35  1  0
 11 36  1  0
 16 37  1  0
 17 38  1  0
 21 39  1  0
 21 40  1  0
 22 41  1  0
 22 42  1  0
 23 43  1  0
 24 44  1  0
 24 45  1  0
 25 46  1  0
 25 47  1  0
M  END
>  <Energy>  (948) 
106.98273767180962

>  <compound_id>  (948) 
2999

>  <target_id>  (948) 
1

>  <reference_id>  (948) 
191

>  <inspiration_ids>  (948) 
[191, 20]

>  <energy_score>  (948) 
-78.01932876466128

>  <distance_score>  (948) 
1.7855847623568974

>  <path>  (948) 
/opt/xchem-fragalysis-2/maxwin/BulkDock/SCRATCH/505736/C2999-P191/C2999-P191.minimised.mol

>  <scratch_subdir>  (948) 
/opt/xchem-fragalysis-2/maxwin/BulkDock/SCRATCH/505736/C2999-P191

>  <fragmenstein_runtime>  (948) 
11.428887128829956

>  <fragmenstein_outcome>  (948) 
too moved

>  <fragmenstein_mode>  (948) 
expansion

>  <fragmenstein_error>  (948) 


$$$$
C2999-P20
     RDKit          3D

 47 50  0  0  0  0  0  0  0  0999 V2000
   18.8554   -1.6282   18.8009 O   0  0  0  0  0  0  0  0  0  0  0  0
   18.3555   -2.6211   17.8755 S   0  0  0  0  0  0  0  0  0  0  0  0
   18.3660   -4.0240   18.2271 O   0  0  0  0  0  0  0  0  0  0  0  0
   19.1812   -2.4558   16.4399 N   0  0  0  0  0  0  0  0  0  0  0  0
   20.0197   -1.2677   16.2004 C   0  0  0  0  0  0  0  0  0  0  0  0
   20.4739   -1.1802   14.7269 C   0  0  0  0  0  0  0  0  0  0  0  0
   19.4268   -1.5609   13.7705 N   0  0  0  0  0  0  0  0  0  0  0  0
   18.9589   -2.9365   14.0163 C   0  0  0  0  0  0  0  0  0  0  0  0
   19.2341   -3.5117   15.4252 C   0  0  0  0  0  0  0  0  0  0  0  0
   16.7552   -2.2348   17.3912 N   0  0  0  0  0  0  0  0  0  0  0  0
   16.1065   -3.2527   16.5317 C   0  0  0  0  0  0  0  0  0  0  0  0
   14.6466   -3.3212   16.7287 C   0  0  0  0  0  0  0  0  0  0  0  0
   14.0705   -4.0738   17.6819 N   0  0  0  0  0  0  0  0  0  0  0  0
   12.6898   -4.0216   17.3389 O   0  0  0  0  0  0  0  0  0  0  0  0
   12.5131   -3.2499   16.2300 C   0  0  0  0  0  0  0  0  0  0  0  0
   11.5211   -2.8579   15.3389 C   0  0  0  0  0  0  0  0  0  0  0  0
   12.2334   -2.0878   14.4495 C   0  0  0  0  0  0  0  0  0  0  0  0
   13.5696   -2.0303   14.7312 O   0  0  0  0  0  0  0  0  0  0  0  0
   13.7019   -2.7800   15.8518 C   0  0  0  0  0  0  0  0  0  0  0  0
   16.5572   -0.8543   17.2276 N   0  0  0  0  0  0  0  0  0  0  0  0
   15.5886   -0.2957   18.1654 C   0  0  0  0  0  0  0  0  0  0  0  0
   14.2361    0.1194   17.5542 C   0  0  0  0  0  0  0  0  0  0  0  0
   14.2281    0.6034   16.1630 N   0  0  0  0  0  0  0  0  0  0  0  0
   15.5974    0.9284   15.7400 C   0  0  0  0  0  0  0  0  0  0  0  0
   16.5300   -0.2909   15.8752 C   0  0  0  0  0  0  0  0  0  0  0  0
   19.4675   -0.3606   16.4601 H   0  0  0  0  0  0  0  0  0  0  0  0
   20.9064   -1.3153   16.8423 H   0  0  0  0  0  0  0  0  0  0  0  0
   21.3504   -1.8230   14.5738 H   0  0  0  0  0  0  0  0  0  0  0  0
   20.8010   -0.1559   14.5166 H   0  0  0  0  0  0  0  0  0  0  0  0
   19.7766   -1.4826   12.8161 H   0  0  0  0  0  0  0  0  0  0  0  0
   19.4097   -3.6105   13.2778 H   0  0  0  0  0  0  0  0  0  0  0  0
   17.8816   -2.9478   13.8214 H   0  0  0  0  0  0  0  0  0  0  0  0
   18.5308   -4.3231   15.6274 H   0  0  0  0  0  0  0  0  0  0  0  0
   20.2377   -3.9546   15.4515 H   0  0  0  0  0  0  0  0  0  0  0  0
   16.3386   -3.0785   15.4787 H   0  0  0  0  0  0  0  0  0  0  0  0
   16.4942   -4.2527   16.7564 H   0  0  0  0  0  0  0  0  0  0  0  0
   10.4744   -3.0935   15.2841 H   0  0  0  0  0  0  0  0  0  0  0  0
   11.9379   -1.5403   13.5644 H   0  0  0  0  0  0  0  0  0  0  0  0
   16.0509    0.6054   18.5906 H   0  0  0  0  0  0  0  0  0  0  0  0
   15.4162   -0.9587   19.0232 H   0  0  0  0  0  0  0  0  0  0  0  0
   13.5352   -0.7128   17.6271 H   0  0  0  0  0  0  0  0  0  0  0  0
   13.8263    0.9216   18.1773 H   0  0  0  0  0  0  0  0  0  0  0  0
   13.8974   -0.1537   15.5608 H   0  0  0  0  0  0  0  0  0  0  0  0
   15.9791    1.7780   16.3198 H   0  0  0  0  0  0  0  0  0  0  0  0
   15.5738    1.2509   14.6929 H   0  0  0  0  0  0  0  0  0  0  0  0
   16.2115   -1.0239   15.1288 H   0  0  0  0  0  0  0  0  0  0  0  0
   17.5355    0.0233   15.5881 H   0  0  0  0  0  0  0  0  0  0  0  0
  1  2  2  0
  2  3  2  0
  2  4  1  0
  4  5  1  0
  5  6  1  0
  6  7  1  0
  7  8  1  0
  8  9  1  0
  2 10  1  0
 10 11  1  0
 11 12  1  0
 12 13  2  0
 13 14  1  0
 14 15  1  0
 15 16  1  0
 16 17  2  0
 17 18  1  0
 18 19  1  0
 10 20  1  0
 20 21  1  0
 21 22  1  0
 22 23  1  0
 23 24  1  0
 24 25  1  0
  9  4  1  0
 19 12  1  0
 25 20  1  0
 19 15  2  0
  5 26  1  0
  5 27  1  0
  6 28  1  0
  6 29  1  0
  7 30  1  0
  8 31  1  0
  8 32  1  0
  9 33  1  0
  9 34  1  0
 11 35  1  0
 11 36  1  0
 16 37  1  0
 17 38  1  0
 21 39  1  0
 21 40  1  0
 22 41  1  0
 22 42  1  0
 23 43  1  0
 24 44  1  0
 24 45  1  0
 25 46  1  0
 25 47  1  0
M  END
>  <Energy>  (949) 
105.00324504204367

>  <compound_id>  (949) 
2999

>  <target_id>  (949) 
1

>  <reference_id>  (949) 
20

>  <inspiration_ids>  (949) 
[191, 20]

>  <energy_score>  (949) 
-79.99882139442818

>  <distance_score>  (949) 
1.7637053097081845

>  <path>  (949) 
/opt/xchem-fragalysis-2/maxwin/BulkDock/SCRATCH/505736/C2999-P20/C2999-P20.minimised.mol

>  <scratch_subdir>  (949) 
/opt/xchem-fragalysis-2/maxwin/BulkDock/SCRATCH/505736/C2999-P20

>  <fragmenstein_runtime>  (949) 
10.443769454956055

>  <fragmenstein_outcome>  (949) 
too moved

>  <fragmenstein_mode>  (949) 
expansion

>  <fragmenstein_error>  (949) 


$$$$
C3002-P191
     RDKit          3D

 45 47  0  0  0  0  0  0  0  0999 V2000
   13.1553    1.3632   14.8364 C   0  0  0  0  0  0  0  0  0  0  0  0
   13.6633    0.0360   15.2870 C   0  0  0  0  0  0  0  0  0  0  0  0
   12.7693   -0.9637   15.6647 C   0  0  0  0  0  0  0  0  0  0  0  0
   13.2384   -2.2813   15.7634 C   0  0  0  0  0  0  0  0  0  0  0  0
   12.4363   -3.2430   15.1641 O   0  0  0  0  0  0  0  0  0  0  0  0
   12.4157   -3.0862   13.5103 S   0  0  0  0  0  0  0  0  0  0  0  0
   13.7551   -3.2107   12.9713 O   0  0  0  0  0  0  0  0  0  0  0  0
   11.6185   -1.9290   13.1681 O   0  0  0  0  0  0  0  0  0  0  0  0
   11.6144   -4.3360   12.9570 F   0  0  0  0  0  0  0  0  0  0  0  0
   14.5945   -2.5904   15.8527 C   0  0  0  0  0  0  0  0  0  0  0  0
   15.4452   -1.6094   15.3973 C   0  0  0  0  0  0  0  0  0  0  0  0
   14.9900   -0.3278   15.0850 C   0  0  0  0  0  0  0  0  0  0  0  0
   16.0450    0.4479   14.3547 C   0  0  0  0  0  0  0  0  0  0  0  0
   17.0618   -0.5683   14.1083 N   0  0  0  0  0  0  0  0  0  0  0  0
   16.7616   -1.7648   14.7234 C   0  0  0  0  0  0  0  0  0  0  0  0
   17.3710   -2.8904   14.6790 N   0  0  0  0  0  0  0  0  0  0  0  0
   18.5231   -3.1150   13.7809 C   0  0  0  0  0  0  0  0  0  0  0  0
   19.6598   -2.0902   13.7107 C   0  0  0  0  0  0  0  0  0  0  0  0
   20.5505   -2.1044   14.8210 O   0  0  0  0  0  0  0  0  0  0  0  0
   20.0516   -1.4130   15.9602 C   0  0  0  0  0  0  0  0  0  0  0  0
   19.5836   -2.3978   17.0209 C   0  0  0  0  0  0  0  0  0  0  0  0
   18.5624   -1.8088   17.8564 N   0  0  0  0  0  0  0  0  0  0  0  0
   17.3332   -2.3302   18.1216 C   0  0  0  0  0  0  0  0  0  0  0  0
   16.6112   -1.2863   18.6228 C   0  0  0  0  0  0  0  0  0  0  0  0
   14.8235   -1.2638   19.0874 Br  0  0  0  0  0  0  0  0  0  0  0  0
   17.4921   -0.2102   18.7157 C   0  0  0  0  0  0  0  0  0  0  0  0
   18.7234   -0.5520   18.3237 N   0  0  0  0  0  0  0  0  0  0  0  0
   13.8792    2.1556   15.0535 H   0  0  0  0  0  0  0  0  0  0  0  0
   12.2303    1.6263   15.3611 H   0  0  0  0  0  0  0  0  0  0  0  0
   12.9534    1.3488   13.7606 H   0  0  0  0  0  0  0  0  0  0  0  0
   11.6987   -0.7701   15.6181 H   0  0  0  0  0  0  0  0  0  0  0  0
   14.9704   -3.5919   15.9907 H   0  0  0  0  0  0  0  0  0  0  0  0
   15.6702    0.8413   13.4051 H   0  0  0  0  0  0  0  0  0  0  0  0
   16.4474    1.2532   14.9756 H   0  0  0  0  0  0  0  0  0  0  0  0
   17.3452   -0.6495   13.1395 H   0  0  0  0  0  0  0  0  0  0  0  0
   18.9560   -4.0789   14.0740 H   0  0  0  0  0  0  0  0  0  0  0  0
   18.1208   -3.2498   12.7692 H   0  0  0  0  0  0  0  0  0  0  0  0
   19.3492   -1.0676   13.4921 H   0  0  0  0  0  0  0  0  0  0  0  0
   20.2810   -2.3803   12.8541 H   0  0  0  0  0  0  0  0  0  0  0  0
   20.8861   -0.8283   16.3656 H   0  0  0  0  0  0  0  0  0  0  0  0
   19.2846   -0.6854   15.6753 H   0  0  0  0  0  0  0  0  0  0  0  0
   20.4141   -2.6804   17.6778 H   0  0  0  0  0  0  0  0  0  0  0  0
   19.1920   -3.3226   16.5879 H   0  0  0  0  0  0  0  0  0  0  0  0
   17.0704   -3.3447   17.8577 H   0  0  0  0  0  0  0  0  0  0  0  0
   17.3148    0.7932   19.0785 H   0  0  0  0  0  0  0  0  0  0  0  0
  1  2  1  0
  2  3  2  0
  3  4  1  0
  4  5  1  0
  5  6  1  0
  6  7  2  0
  6  8  2  0
  6  9  1  0
  4 10  2  0
 10 11  1  0
 11 12  2  0
 12 13  1  0
 13 14  1  0
 14 15  1  0
 15 16  2  3
 16 17  1  0
 17 18  1  0
 18 19  1  0
 19 20  1  0
 20 21  1  0
 21 22  1  0
 22 23  1  0
 23 24  2  0
 24 25  1  0
 24 26  1  0
 26 27  2  0
 12  2  1  0
 27 22  1  0
 15 11  1  0
  1 28  1  0
  1 29  1  0
  1 30  1  0
  3 31  1  0
 10 32  1  0
 13 33  1  0
 13 34  1  0
 14 35  1  0
 17 36  1  0
 17 37  1  0
 18 38  1  0
 18 39  1  0
 20 40  1  0
 20 41  1  0
 21 42  1  0
 21 43  1  0
 23 44  1  0
 26 45  1  0
M  END
>  <Energy>  (950) 
74.605649331414554

>  <compound_id>  (950) 
3002

>  <target_id>  (950) 
1

>  <reference_id>  (950) 
191

>  <inspiration_ids>  (950) 
[191, 29]

>  <energy_score>  (950) 
-22.06469364267474

>  <distance_score>  (950) 
1.6570252467531206

>  <path>  (950) 
/opt/xchem-fragalysis-2/maxwin/BulkDock/SCRATCH/505736/C3002-P191/C3002-P191.minimised.mol

>  <scratch_subdir>  (950) 
/opt/xchem-fragalysis-2/maxwin/BulkDock/SCRATCH/505736/C3002-P191

>  <fragmenstein_runtime>  (950) 
4.330107927322388

>  <fragmenstein_outcome>  (950) 
too moved

>  <fragmenstein_mode>  (950) 
expansion

>  <fragmenstein_error>  (950) 


$$$$
C3002-P29
     RDKit          3D

 45 47  0  0  0  0  0  0  0  0999 V2000
   13.8564    1.2829   13.4075 C   0  0  0  0  0  0  0  0  0  0  0  0
   14.2366    0.0576   14.1602 C   0  0  0  0  0  0  0  0  0  0  0  0
   13.2732   -0.7039   14.7890 C   0  0  0  0  0  0  0  0  0  0  0  0
   13.5742   -1.9420   15.3822 C   0  0  0  0  0  0  0  0  0  0  0  0
   12.5524   -2.7983   15.6993 O   0  0  0  0  0  0  0  0  0  0  0  0
   11.2989   -2.8254   14.6387 S   0  0  0  0  0  0  0  0  0  0  0  0
   11.8122   -2.7064   13.2874 O   0  0  0  0  0  0  0  0  0  0  0  0
   10.2615   -1.9629   15.1792 O   0  0  0  0  0  0  0  0  0  0  0  0
   10.7193   -4.2832   14.7018 F   0  0  0  0  0  0  0  0  0  0  0  0
   14.8874   -2.3896   15.4874 C   0  0  0  0  0  0  0  0  0  0  0  0
   15.8283   -1.6603   14.7872 C   0  0  0  0  0  0  0  0  0  0  0  0
   15.4998   -0.4844   14.1029 C   0  0  0  0  0  0  0  0  0  0  0  0
   16.6109   -0.0276   13.2133 C   0  0  0  0  0  0  0  0  0  0  0  0
   17.5401   -1.1370   13.3080 N   0  0  0  0  0  0  0  0  0  0  0  0
   17.1748   -2.0303   14.2968 C   0  0  0  0  0  0  0  0  0  0  0  0
   17.8232   -3.0541   14.7127 N   0  0  0  0  0  0  0  0  0  0  0  0
   19.0433   -3.4502   13.9810 C   0  0  0  0  0  0  0  0  0  0  0  0
   20.1428   -2.3988   13.7583 C   0  0  0  0  0  0  0  0  0  0  0  0
   20.9188   -2.0705   14.9063 O   0  0  0  0  0  0  0  0  0  0  0  0
   20.2073   -1.3201   15.8835 C   0  0  0  0  0  0  0  0  0  0  0  0
   19.8236   -2.2224   17.0428 C   0  0  0  0  0  0  0  0  0  0  0  0
   18.6853   -1.6990   17.7529 N   0  0  0  0  0  0  0  0  0  0  0  0
   17.5250   -2.3561   18.0088 C   0  0  0  0  0  0  0  0  0  0  0  0
   16.6822   -1.3988   18.4867 C   0  0  0  0  0  0  0  0  0  0  0  0
   14.9342   -1.6287   19.0127 Br  0  0  0  0  0  0  0  0  0  0  0  0
   17.4104   -0.2118   18.5271 C   0  0  0  0  0  0  0  0  0  0  0  0
   18.6761   -0.4073   18.1447 N   0  0  0  0  0  0  0  0  0  0  0  0
   13.6243    1.0319   12.3673 H   0  0  0  0  0  0  0  0  0  0  0  0
   14.6671    2.0190   13.4207 H   0  0  0  0  0  0  0  0  0  0  0  0
   12.9827    1.7720   13.8480 H   0  0  0  0  0  0  0  0  0  0  0  0
   12.2490   -0.3627   14.6934 H   0  0  0  0  0  0  0  0  0  0  0  0
   15.1579   -3.3353   15.9407 H   0  0  0  0  0  0  0  0  0  0  0  0
   16.2773    0.1012   12.1792 H   0  0  0  0  0  0  0  0  0  0  0  0
   17.0686    0.8923   13.5883 H   0  0  0  0  0  0  0  0  0  0  0  0
   17.7376   -1.5835   12.4192 H   0  0  0  0  0  0  0  0  0  0  0  0
   19.4799   -4.2913   14.5319 H   0  0  0  0  0  0  0  0  0  0  0  0
   18.7356   -3.8480   13.0058 H   0  0  0  0  0  0  0  0  0  0  0  0
   19.8224   -1.4772   13.2722 H   0  0  0  0  0  0  0  0  0  0  0  0
   20.8582   -2.8465   13.0573 H   0  0  0  0  0  0  0  0  0  0  0  0
   20.8921   -0.5454   16.2486 H   0  0  0  0  0  0  0  0  0  0  0  0
   19.3595   -0.7875   15.4406 H   0  0  0  0  0  0  0  0  0  0  0  0
   20.6494   -2.2942   17.7603 H   0  0  0  0  0  0  0  0  0  0  0  0
   19.6009   -3.2449   16.7251 H   0  0  0  0  0  0  0  0  0  0  0  0
   17.3929   -3.4055   17.7847 H   0  0  0  0  0  0  0  0  0  0  0  0
   17.1042    0.7728   18.8532 H   0  0  0  0  0  0  0  0  0  0  0  0
  1  2  1  0
  2  3  2  0
  3  4  1  0
  4  5  1  0
  5  6  1  0
  6  7  2  0
  6  8  2  0
  6  9  1  0
  4 10  2  0
 10 11  1  0
 11 12  2  0
 12 13  1  0
 13 14  1  0
 14 15  1  0
 15 16  2  3
 16 17  1  0
 17 18  1  0
 18 19  1  0
 19 20  1  0
 20 21  1  0
 21 22  1  0
 22 23  1  0
 23 24  2  0
 24 25  1  0
 24 26  1  0
 26 27  2  0
 12  2  1  0
 27 22  1  0
 15 11  1  0
  1 28  1  0
  1 29  1  0
  1 30  1  0
  3 31  1  0
 10 32  1  0
 13 33  1  0
 13 34  1  0
 14 35  1  0
 17 36  1  0
 17 37  1  0
 18 38  1  0
 18 39  1  0
 20 40  1  0
 20 41  1  0
 21 42  1  0
 21 43  1  0
 23 44  1  0
 26 45  1  0
M  END
>  <Energy>  (951) 
58.131631606524714

>  <compound_id>  (951) 
3002

>  <target_id>  (951) 
1

>  <reference_id>  (951) 
29

>  <inspiration_ids>  (951) 
[191, 29]

>  <energy_score>  (951) 
-38.538711367562655

>  <distance_score>  (951) 
1.9188494817860986

>  <path>  (951) 
/opt/xchem-fragalysis-2/maxwin/BulkDock/SCRATCH/505736/C3002-P29/C3002-P29.minimised.mol

>  <scratch_subdir>  (951) 
/opt/xchem-fragalysis-2/maxwin/BulkDock/SCRATCH/505736/C3002-P29

>  <fragmenstein_runtime>  (951) 
4.241689205169678

>  <fragmenstein_outcome>  (951) 
too moved

>  <fragmenstein_mode>  (951) 
expansion

>  <fragmenstein_error>  (951) 


$$$$
C2812-P191
     RDKit          3D

 27 28  0  0  0  0  0  0  0  0999 V2000
   15.9889   -0.8010   17.1100 C   0  0  0  0  0  0  0  0  0  0  0  0
   14.8259   -1.3460   16.3308 C   0  0  0  0  0  0  0  0  0  0  0  0
   14.5047   -0.8535   15.0290 C   0  0  0  0  0  0  0  0  0  0  0  0
   15.3197    0.0796   14.4421 O   0  0  0  0  0  0  0  0  0  0  0  0
   15.9351   -0.2780   12.9646 S   0  0  0  0  0  0  0  0  0  0  0  0
   15.0444    0.2189   11.9351 O   0  0  0  0  0  0  0  0  0  0  0  0
   16.4187   -1.6455   12.9532 O   0  0  0  0  0  0  0  0  0  0  0  0
   17.2446    0.6210   12.8425 F   0  0  0  0  0  0  0  0  0  0  0  0
   13.4253   -1.3275   14.2964 C   0  0  0  0  0  0  0  0  0  0  0  0
   12.7377   -2.3489   14.8688 C   0  0  0  0  0  0  0  0  0  0  0  0
   13.0186   -2.8525   16.1343 C   0  0  0  0  0  0  0  0  0  0  0  0
   14.0626   -2.3831   16.8973 C   0  0  0  0  0  0  0  0  0  0  0  0
   14.4042   -3.0749   18.1869 C   0  0  0  0  0  0  0  0  0  0  0  0
   12.0874   -3.9467   16.4387 C   0  0  0  0  0  0  0  0  0  0  0  0
   11.2451   -3.9571   15.2790 N   0  0  0  0  0  0  0  0  0  0  0  0
   11.7091   -3.1675   14.2678 C   0  0  0  0  0  0  0  0  0  0  0  0
   11.4202   -3.1684   13.0929 O   0  0  0  0  0  0  0  0  0  0  0  0
   15.6400   -0.3429   18.0412 H   0  0  0  0  0  0  0  0  0  0  0  0
   16.5339   -0.0300   16.5572 H   0  0  0  0  0  0  0  0  0  0  0  0
   16.7039   -1.5982   17.3387 H   0  0  0  0  0  0  0  0  0  0  0  0
   13.1589   -0.9792   13.3044 H   0  0  0  0  0  0  0  0  0  0  0  0
   14.7581   -2.3597   18.9357 H   0  0  0  0  0  0  0  0  0  0  0  0
   15.1834   -3.8235   18.0124 H   0  0  0  0  0  0  0  0  0  0  0  0
   13.5369   -3.5735   18.6305 H   0  0  0  0  0  0  0  0  0  0  0  0
   11.5001   -3.7256   17.2997 H   0  0  0  0  0  0  0  0  0  0  0  0
   12.6010   -4.8921   16.5973 H   0  0  0  0  0  0  0  0  0  0  0  0
   10.5149   -4.6472   15.1550 H   0  0  0  0  0  0  0  0  0  0  0  0
  1  2  1  0
  2  3  2  0
  3  4  1  0
  4  5  1  0
  5  6  2  0
  5  7  2  0
  5  8  1  0
  3  9  1  0
  9 10  2  0
 10 11  1  0
 11 12  2  0
 12 13  1  0
 11 14  1  0
 14 15  1  0
 15 16  1  0
 16 17  2  0
 12  2  1  0
 16 10  1  0
  1 18  1  0
  1 19  1  0
  1 20  1  0
  9 21  1  0
 13 22  1  0
 13 23  1  0
 13 24  1  0
 14 25  1  0
 14 26  1  0
 15 27  1  0
M  END
>  <Energy>  (952) 
17.075771647432092

>  <compound_id>  (952) 
2812

>  <target_id>  (952) 
1

>  <reference_id>  (952) 
191

>  <inspiration_ids>  (952) 
[191, 31]

>  <energy_score>  (952) 
-23.50729247633609

>  <distance_score>  (952) 
1.1329705593302666

>  <path>  (952) 
/opt/xchem-fragalysis-2/maxwin/BulkDock/SCRATCH/505736/C2812-P191/C2812-P191.minimised.mol

>  <scratch_subdir>  (952) 
/opt/xchem-fragalysis-2/maxwin/BulkDock/SCRATCH/505736/C2812-P191

>  <fragmenstein_runtime>  (952) 
1.4193365573883057

>  <fragmenstein_outcome>  (952) 
too moved

>  <fragmenstein_mode>  (952) 
expansion

>  <fragmenstein_error>  (952) 


$$$$
C2812-P31
     RDKit          3D

 27 28  0  0  0  0  0  0  0  0999 V2000
   16.6804   -1.2245   15.9649 C   0  0  0  0  0  0  0  0  0  0  0  0
   15.2536   -1.6231   15.7150 C   0  0  0  0  0  0  0  0  0  0  0  0
   14.4597   -0.9555   14.7452 C   0  0  0  0  0  0  0  0  0  0  0  0
   15.0169    0.0519   14.0108 O   0  0  0  0  0  0  0  0  0  0  0  0
   15.4405   -0.3066   12.4781 S   0  0  0  0  0  0  0  0  0  0  0  0
   14.3059   -0.0678   11.6103 O   0  0  0  0  0  0  0  0  0  0  0  0
   16.1959   -1.5410   12.4404 O   0  0  0  0  0  0  0  0  0  0  0  0
   16.4934    0.8222   12.0785 F   0  0  0  0  0  0  0  0  0  0  0  0
   13.1090   -1.2202   14.5743 C   0  0  0  0  0  0  0  0  0  0  0  0
   12.6191   -2.2396   15.3409 C   0  0  0  0  0  0  0  0  0  0  0  0
   13.3840   -2.9680   16.2517 C   0  0  0  0  0  0  0  0  0  0  0  0
   14.6748   -2.5978   16.5411 C   0  0  0  0  0  0  0  0  0  0  0  0
   15.4040   -3.1685   17.7103 C   0  0  0  0  0  0  0  0  0  0  0  0
   12.6018   -4.1089   16.7727 C   0  0  0  0  0  0  0  0  0  0  0  0
   11.3551   -3.9246   16.1005 N   0  0  0  0  0  0  0  0  0  0  0  0
   11.2707   -2.7476   15.4199 C   0  0  0  0  0  0  0  0  0  0  0  0
   10.2656   -2.1724   15.0741 O   0  0  0  0  0  0  0  0  0  0  0  0
   16.7853   -0.6571   16.8936 H   0  0  0  0  0  0  0  0  0  0  0  0
   17.0833   -0.6067   15.1567 H   0  0  0  0  0  0  0  0  0  0  0  0
   17.3209   -2.1120   16.0139 H   0  0  0  0  0  0  0  0  0  0  0  0
   12.4756   -0.6821   13.8793 H   0  0  0  0  0  0  0  0  0  0  0  0
   15.9997   -2.3992   18.2140 H   0  0  0  0  0  0  0  0  0  0  0  0
   16.0849   -3.9591   17.3853 H   0  0  0  0  0  0  0  0  0  0  0  0
   14.7135   -3.5168   18.4823 H   0  0  0  0  0  0  0  0  0  0  0  0
   12.4748   -4.0561   17.8502 H   0  0  0  0  0  0  0  0  0  0  0  0
   13.0156   -5.0646   16.4738 H   0  0  0  0  0  0  0  0  0  0  0  0
   10.5884   -4.5848   16.1177 H   0  0  0  0  0  0  0  0  0  0  0  0
  1  2  1  0
  2  3  2  0
  3  4  1  0
  4  5  1  0
  5  6  2  0
  5  7  2  0
  5  8  1  0
  3  9  1  0
  9 10  2  0
 10 11  1  0
 11 12  2  0
 12 13  1  0
 11 14  1  0
 14 15  1  0
 15 16  1  0
 16 17  2  0
 12  2  1  0
 16 10  1  0
  1 18  1  0
  1 19  1  0
  1 20  1  0
  9 21  1  0
 13 22  1  0
 13 23  1  0
 13 24  1  0
 14 25  1  0
 14 26  1  0
 15 27  1  0
M  END
>  <Energy>  (953) 
19.070610087209225

>  <compound_id>  (953) 
2812

>  <target_id>  (953) 
1

>  <reference_id>  (953) 
31

>  <inspiration_ids>  (953) 
[191, 31]

>  <energy_score>  (953) 
-21.512454036557358

>  <distance_score>  (953) 
1.4707524853021596

>  <path>  (953) 
/opt/xchem-fragalysis-2/maxwin/BulkDock/SCRATCH/505736/C2812-P31/C2812-P31.minimised.mol

>  <scratch_subdir>  (953) 
/opt/xchem-fragalysis-2/maxwin/BulkDock/SCRATCH/505736/C2812-P31

>  <fragmenstein_runtime>  (953) 
1.3338887691497803

>  <fragmenstein_outcome>  (953) 
too moved

>  <fragmenstein_mode>  (953) 
expansion

>  <fragmenstein_error>  (953) 


$$$$
C152-P191
     RDKit          3D

 35 36  0  0  0  0  0  0  0  0999 V2000
   11.6279    0.9905   14.8339 C   0  0  0  0  0  0  0  0  0  0  0  0
   12.1076   -0.2941   15.4392 C   0  0  0  0  0  0  0  0  0  0  0  0
   11.5333   -1.4879   15.0682 C   0  0  0  0  0  0  0  0  0  0  0  0
   12.0603   -2.5995   15.6680 C   0  0  0  0  0  0  0  0  0  0  0  0
   11.5870   -3.8338   15.3838 O   0  0  0  0  0  0  0  0  0  0  0  0
   13.0511   -2.5855   16.5621 N   0  0  0  0  0  0  0  0  0  0  0  0
   13.5355   -1.3820   16.8829 C   0  0  0  0  0  0  0  0  0  0  0  0
   14.6336   -1.3199   17.9025 C   0  0  0  0  0  0  0  0  0  0  0  0
   15.9753   -1.5525   17.2350 C   0  0  0  0  0  0  0  0  0  0  0  0
   17.0547   -1.3958   18.2325 N   0  0  0  0  0  0  0  0  0  0  0  0
   18.3631   -2.4579   18.0821 S   0  0  0  0  0  0  0  0  0  0  0  0
   17.8743   -3.8166   18.1274 O   0  0  0  0  0  0  0  0  0  0  0  0
   19.3894   -1.9714   18.9801 O   0  0  0  0  0  0  0  0  0  0  0  0
   19.0385   -2.2446   16.4725 C   0  0  0  0  0  0  0  0  0  0  0  0
   20.2820   -1.6208   16.2169 C   0  0  0  0  0  0  0  0  0  0  0  0
   20.3963   -1.6062   14.8480 C   0  0  0  0  0  0  0  0  0  0  0  0
   19.2718   -2.2108   14.3698 N   0  0  0  0  0  0  0  0  0  0  0  0
   18.9564   -2.4532   12.9865 C   0  0  0  0  0  0  0  0  0  0  0  0
   18.3937   -2.5596   15.3282 N   0  0  0  0  0  0  0  0  0  0  0  0
   13.1016   -0.2215   16.3505 N   0  0  0  0  0  0  0  0  0  0  0  0
   11.7428    0.9637   13.7457 H   0  0  0  0  0  0  0  0  0  0  0  0
   12.2027    1.8400   15.2167 H   0  0  0  0  0  0  0  0  0  0  0  0
   10.5739    1.1533   15.0803 H   0  0  0  0  0  0  0  0  0  0  0  0
   10.7376   -1.5384   14.3384 H   0  0  0  0  0  0  0  0  0  0  0  0
   10.7526   -3.7715   14.8987 H   0  0  0  0  0  0  0  0  0  0  0  0
   14.6149   -0.3434   18.4020 H   0  0  0  0  0  0  0  0  0  0  0  0
   14.4579   -2.0731   18.6801 H   0  0  0  0  0  0  0  0  0  0  0  0
   16.1416   -0.8311   16.4264 H   0  0  0  0  0  0  0  0  0  0  0  0
   15.9822   -2.5567   16.7969 H   0  0  0  0  0  0  0  0  0  0  0  0
   17.3689   -0.4411   18.3973 H   0  0  0  0  0  0  0  0  0  0  0  0
   20.9929   -1.2422   16.9392 H   0  0  0  0  0  0  0  0  0  0  0  0
   21.1773   -1.2430   14.1939 H   0  0  0  0  0  0  0  0  0  0  0  0
   18.0315   -1.9237   12.7442 H   0  0  0  0  0  0  0  0  0  0  0  0
   18.8288   -3.5294   12.8452 H   0  0  0  0  0  0  0  0  0  0  0  0
   19.7699   -2.0893   12.3541 H   0  0  0  0  0  0  0  0  0  0  0  0
  1  2  1  0
  2  3  2  0
  3  4  1  0
  4  5  1  0
  4  6  2  0
  6  7  1  0
  7  8  1  0
  8  9  1  0
  9 10  1  0
 10 11  1  0
 11 12  2  0
 11 13  2  0
 11 14  1  0
 14 15  1  0
 15 16  2  0
 16 17  1  0
 17 18  1  0
 17 19  1  0
  7 20  2  0
 20  2  1  0
 19 14  2  0
  1 21  1  0
  1 22  1  0
  1 23  1  0
  3 24  1  0
  5 25  1  0
  8 26  1  0
  8 27  1  0
  9 28  1  0
  9 29  1  0
 10 30  1  0
 15 31  1  0
 16 32  1  0
 18 33  1  0
 18 34  1  0
 18 35  1  0
M  END
>  <Energy>  (954) 
-12.711478121078654

>  <compound_id>  (954) 
152

>  <target_id>  (954) 
1

>  <reference_id>  (954) 
191

>  <inspiration_ids>  (954) 
[191, 55]

>  <energy_score>  (954) 
-286.640515959116

>  <distance_score>  (954) 
0.8452367489488942

>  <path>  (954) 
/opt/xchem-fragalysis-2/maxwin/BulkDock/SCRATCH/505736/C152-P191/C152-P191.minimised.mol

>  <scratch_subdir>  (954) 
/opt/xchem-fragalysis-2/maxwin/BulkDock/SCRATCH/505736/C152-P191

>  <fragmenstein_runtime>  (954) 
2.593808889389038

>  <fragmenstein_outcome>  (954) 
acceptable

>  <fragmenstein_mode>  (954) 
expansion

>  <fragmenstein_error>  (954) 


$$$$
C152-P55
     RDKit          3D

 35 36  0  0  0  0  0  0  0  0999 V2000
   12.1662    1.4024   15.0519 C   0  0  0  0  0  0  0  0  0  0  0  0
   12.4020   -0.0022   15.5167 C   0  0  0  0  0  0  0  0  0  0  0  0
   11.6648   -1.0386   14.9985 C   0  0  0  0  0  0  0  0  0  0  0  0
   11.9600   -2.2821   15.4934 C   0  0  0  0  0  0  0  0  0  0  0  0
   11.2770   -3.3683   15.0438 O   0  0  0  0  0  0  0  0  0  0  0  0
   12.8835   -2.5268   16.4282 N   0  0  0  0  0  0  0  0  0  0  0  0
   13.5549   -1.4588   16.8768 C   0  0  0  0  0  0  0  0  0  0  0  0
   14.6072   -1.6533   17.9281 C   0  0  0  0  0  0  0  0  0  0  0  0
   15.9780   -1.7058   17.2803 C   0  0  0  0  0  0  0  0  0  0  0  0
   17.0244   -1.5463   18.3149 N   0  0  0  0  0  0  0  0  0  0  0  0
   18.3941   -2.5200   18.1466 S   0  0  0  0  0  0  0  0  0  0  0  0
   17.9902   -3.9074   18.1721 O   0  0  0  0  0  0  0  0  0  0  0  0
   19.3887   -1.9903   19.0564 O   0  0  0  0  0  0  0  0  0  0  0  0
   19.0634   -2.2429   16.5458 C   0  0  0  0  0  0  0  0  0  0  0  0
   20.2846   -1.5750   16.2945 C   0  0  0  0  0  0  0  0  0  0  0  0
   20.3857   -1.5245   14.9241 C   0  0  0  0  0  0  0  0  0  0  0  0
   19.2724   -2.1475   14.4423 N   0  0  0  0  0  0  0  0  0  0  0  0
   18.9323   -2.3522   13.0592 C   0  0  0  0  0  0  0  0  0  0  0  0
   18.4266   -2.5568   15.4004 N   0  0  0  0  0  0  0  0  0  0  0  0
   13.3460   -0.1938   16.4568 N   0  0  0  0  0  0  0  0  0  0  0  0
   12.3337    1.4779   13.9729 H   0  0  0  0  0  0  0  0  0  0  0  0
   12.8475    2.0984   15.5520 H   0  0  0  0  0  0  0  0  0  0  0  0
   11.1400    1.7080   15.2789 H   0  0  0  0  0  0  0  0  0  0  0  0
   10.9065   -0.8726   14.2478 H   0  0  0  0  0  0  0  0  0  0  0  0
   10.7293   -3.0861   14.2922 H   0  0  0  0  0  0  0  0  0  0  0  0
   14.5485   -0.8247   18.6449 H   0  0  0  0  0  0  0  0  0  0  0  0
   14.4147   -2.5724   18.4944 H   0  0  0  0  0  0  0  0  0  0  0  0
   16.1079   -0.9028   16.5450 H   0  0  0  0  0  0  0  0  0  0  0  0
   16.0717   -2.6618   16.7540 H   0  0  0  0  0  0  0  0  0  0  0  0
   17.2717   -0.5839   18.5382 H   0  0  0  0  0  0  0  0  0  0  0  0
   20.9872   -1.1879   17.0201 H   0  0  0  0  0  0  0  0  0  0  0  0
   21.1454   -1.1171   14.2715 H   0  0  0  0  0  0  0  0  0  0  0  0
   17.9979   -1.8249   12.8504 H   0  0  0  0  0  0  0  0  0  0  0  0
   18.8127   -3.4250   12.8873 H   0  0  0  0  0  0  0  0  0  0  0  0
   19.7302   -1.9613   12.4231 H   0  0  0  0  0  0  0  0  0  0  0  0
  1  2  1  0
  2  3  2  0
  3  4  1  0
  4  5  1  0
  4  6  2  0
  6  7  1  0
  7  8  1  0
  8  9  1  0
  9 10  1  0
 10 11  1  0
 11 12  2  0
 11 13  2  0
 11 14  1  0
 14 15  1  0
 15 16  2  0
 16 17  1  0
 17 18  1  0
 17 19  1  0
  7 20  2  0
 20  2  1  0
 19 14  2  0
  1 21  1  0
  1 22  1  0
  1 23  1  0
  3 24  1  0
  5 25  1  0
  8 26  1  0
  8 27  1  0
  9 28  1  0
  9 29  1  0
 10 30  1  0
 15 31  1  0
 16 32  1  0
 18 33  1  0
 18 34  1  0
 18 35  1  0
M  END
>  <Energy>  (955) 
-12.458561782273243

>  <compound_id>  (955) 
152

>  <target_id>  (955) 
1

>  <reference_id>  (955) 
55

>  <inspiration_ids>  (955) 
[191, 55]

>  <energy_score>  (955) 
-286.3875996203103

>  <distance_score>  (955) 
0.9325558568438992

>  <path>  (955) 
/opt/xchem-fragalysis-2/maxwin/BulkDock/SCRATCH/505736/C152-P55/C152-P55.minimised.mol

>  <scratch_subdir>  (955) 
/opt/xchem-fragalysis-2/maxwin/BulkDock/SCRATCH/505736/C152-P55

>  <fragmenstein_runtime>  (955) 
2.537139415740967

>  <fragmenstein_outcome>  (955) 
acceptable

>  <fragmenstein_mode>  (955) 
expansion

>  <fragmenstein_error>  (955) 


$$$$
C3003-P191
     RDKit          3D

 50 52  0  0  0  0  0  0  0  0999 V2000
   15.5100   -4.8641   17.1028 C   0  0  0  0  0  0  0  0  0  0  0  0
   14.3834   -4.9668   18.1011 C   0  0  0  0  0  0  0  0  0  0  0  0
   14.8766   -4.7674   19.5282 C   0  0  0  0  0  0  0  0  0  0  0  0
   14.7623   -3.2681   19.7340 C   0  0  0  0  0  0  0  0  0  0  0  0
   13.9175   -2.7592   18.6865 O   0  0  0  0  0  0  0  0  0  0  0  0
   13.3169   -3.8846   18.0419 C   0  0  0  0  0  0  0  0  0  0  0  0
   12.5090   -3.7279   16.7557 C   0  0  0  0  0  0  0  0  0  0  0  0
   12.1684   -2.7431   15.8988 C   0  0  0  0  0  0  0  0  0  0  0  0
   12.6180   -1.3628   15.9401 C   0  0  0  0  0  0  0  0  0  0  0  0
   11.9079   -0.3120   15.4241 C   0  0  0  0  0  0  0  0  0  0  0  0
   12.4543    0.9153   15.6945 C   0  0  0  0  0  0  0  0  0  0  0  0
   11.8155    2.0426   15.2865 O   0  0  0  0  0  0  0  0  0  0  0  0
   13.5698    1.1432   16.4012 N   0  0  0  0  0  0  0  0  0  0  0  0
   14.2020    0.0358   16.8161 C   0  0  0  0  0  0  0  0  0  0  0  0
   15.3765    0.1290   17.7401 C   0  0  0  0  0  0  0  0  0  0  0  0
   16.4354   -0.9019   17.3773 C   0  0  0  0  0  0  0  0  0  0  0  0
   17.5526   -0.8641   18.3569 N   0  0  0  0  0  0  0  0  0  0  0  0
   18.6848   -2.1249   18.1576 S   0  0  0  0  0  0  0  0  0  0  0  0
   17.9914   -3.3763   18.3572 O   0  0  0  0  0  0  0  0  0  0  0  0
   19.8363   -1.7793   18.9625 O   0  0  0  0  0  0  0  0  0  0  0  0
   19.2374   -2.1065   16.4941 C   0  0  0  0  0  0  0  0  0  0  0  0
   20.3885   -1.4028   16.0709 C   0  0  0  0  0  0  0  0  0  0  0  0
   20.4031   -1.5362   14.7044 C   0  0  0  0  0  0  0  0  0  0  0  0
   19.3071   -2.2826   14.3857 N   0  0  0  0  0  0  0  0  0  0  0  0
   18.8926   -2.6598   13.0598 C   0  0  0  0  0  0  0  0  0  0  0  0
   18.5588   -2.6317   15.4505 N   0  0  0  0  0  0  0  0  0  0  0  0
   13.7799   -1.1956   16.5603 N   0  0  0  0  0  0  0  0  0  0  0  0
   15.5285   -3.9160   16.5625 H   0  0  0  0  0  0  0  0  0  0  0  0
   16.4834   -5.0322   17.5665 H   0  0  0  0  0  0  0  0  0  0  0  0
   15.4327   -5.6771   16.3809 H   0  0  0  0  0  0  0  0  0  0  0  0
   13.9367   -5.9431   17.9580 H   0  0  0  0  0  0  0  0  0  0  0  0
   15.8824   -5.1472   19.7296 H   0  0  0  0  0  0  0  0  0  0  0  0
   14.2014   -5.2769   20.2275 H   0  0  0  0  0  0  0  0  0  0  0  0
   14.3150   -3.0250   20.7030 H   0  0  0  0  0  0  0  0  0  0  0  0
   15.7302   -2.7691   19.6717 H   0  0  0  0  0  0  0  0  0  0  0  0
   12.5731   -4.2292   18.7570 H   0  0  0  0  0  0  0  0  0  0  0  0
   12.0047   -4.6685   16.5478 H   0  0  0  0  0  0  0  0  0  0  0  0
   11.4752   -2.9785   15.0944 H   0  0  0  0  0  0  0  0  0  0  0  0
   10.9778   -0.4213   14.8875 H   0  0  0  0  0  0  0  0  0  0  0  0
   12.3871    2.7238   15.6869 H   0  0  0  0  0  0  0  0  0  0  0  0
   15.8058    1.1369   17.6937 H   0  0  0  0  0  0  0  0  0  0  0  0
   15.0259   -0.0216   18.7682 H   0  0  0  0  0  0  0  0  0  0  0  0
   16.0139   -1.9071   17.3672 H   0  0  0  0  0  0  0  0  0  0  0  0
   16.8209   -0.6773   16.3772 H   0  0  0  0  0  0  0  0  0  0  0  0
   17.2275   -0.9100   19.3234 H   0  0  0  0  0  0  0  0  0  0  0  0
   21.0957   -0.8630   16.6862 H   0  0  0  0  0  0  0  0  0  0  0  0
   21.0866   -1.1685   13.9512 H   0  0  0  0  0  0  0  0  0  0  0  0
   17.8856   -2.2713   12.8873 H   0  0  0  0  0  0  0  0  0  0  0  0
   19.5836   -2.2406   12.3243 H   0  0  0  0  0  0  0  0  0  0  0  0
   18.8975   -3.7508   12.9955 H   0  0  0  0  0  0  0  0  0  0  0  0
  1  2  1  0
  2  3  1  0
  3  4  1  0
  4  5  1  0
  5  6  1  0
  6  7  1  0
  7  8  2  3
  8  9  1  0
  9 10  2  0
 10 11  1  0
 11 12  1  0
 11 13  2  0
 13 14  1  0
 14 15  1  0
 15 16  1  0
 16 17  1  0
 17 18  1  0
 18 19  2  0
 18 20  2  0
 18 21  1  0
 21 22  1  0
 22 23  2  0
 23 24  1  0
 24 25  1  0
 24 26  1  0
 14 27  2  0
  6  2  1  0
 27  9  1  0
 26 21  2  0
  1 28  1  0
  1 29  1  0
  1 30  1  0
  2 31  1  0
  3 32  1  0
  3 33  1  0
  4 34  1  0
  4 35  1  0
  6 36  1  0
  7 37  1  0
  8 38  1  0
 10 39  1  0
 12 40  1  0
 15 41  1  0
 15 42  1  0
 16 43  1  0
 16 44  1  0
 17 45  1  0
 22 46  1  0
 23 47  1  0
 25 48  1  0
 25 49  1  0
 25 50  1  0
M  END
>  <Energy>  (956) 
-4.4263519363221517

>  <compound_id>  (956) 
3003

>  <target_id>  (956) 
1

>  <reference_id>  (956) 
191

>  <inspiration_ids>  (956) 
[191, 60]

>  <energy_score>  (956) 
-70.69465308211585

>  <distance_score>  (956) 
1.2307183674971898

>  <path>  (956) 
/opt/xchem-fragalysis-2/maxwin/BulkDock/SCRATCH/505736/C3003-P191/C3003-P191.minimised.mol

>  <scratch_subdir>  (956) 
/opt/xchem-fragalysis-2/maxwin/BulkDock/SCRATCH/505736/C3003-P191

>  <fragmenstein_runtime>  (956) 
3.220487594604492

>  <fragmenstein_outcome>  (956) 
too moved

>  <fragmenstein_mode>  (956) 
expansion

>  <fragmenstein_error>  (956) 


$$$$
C3003-P60
     RDKit          3D

 50 52  0  0  0  0  0  0  0  0999 V2000
   15.1971   -4.5199   16.9570 C   0  0  0  0  0  0  0  0  0  0  0  0
   14.1926   -4.4779   18.0908 C   0  0  0  0  0  0  0  0  0  0  0  0
   14.8360   -4.2724   19.4492 C   0  0  0  0  0  0  0  0  0  0  0  0
   14.7515   -2.7747   19.6656 C   0  0  0  0  0  0  0  0  0  0  0  0
   14.0083   -2.2291   18.5591 O   0  0  0  0  0  0  0  0  0  0  0  0
   13.2526   -3.3078   18.0060 C   0  0  0  0  0  0  0  0  0  0  0  0
   12.4521   -3.2339   16.7000 C   0  0  0  0  0  0  0  0  0  0  0  0
   12.1608   -2.2838   15.7894 C   0  0  0  0  0  0  0  0  0  0  0  0
   12.6858   -0.9301   15.7964 C   0  0  0  0  0  0  0  0  0  0  0  0
   12.0366    0.1548   15.2751 C   0  0  0  0  0  0  0  0  0  0  0  0
   12.6689    1.3471   15.5159 C   0  0  0  0  0  0  0  0  0  0  0  0
   12.1188    2.5080   15.0728 O   0  0  0  0  0  0  0  0  0  0  0  0
   13.8047    1.5172   16.2099 N   0  0  0  0  0  0  0  0  0  0  0  0
   14.3662    0.3782   16.6420 C   0  0  0  0  0  0  0  0  0  0  0  0
   15.5304    0.4082   17.5881 C   0  0  0  0  0  0  0  0  0  0  0  0
   16.5405   -0.6809   17.2581 C   0  0  0  0  0  0  0  0  0  0  0  0
   17.6096   -0.7501   18.2933 N   0  0  0  0  0  0  0  0  0  0  0  0
   18.6349   -2.1096   18.1351 S   0  0  0  0  0  0  0  0  0  0  0  0
   17.8385   -3.3046   18.3014 O   0  0  0  0  0  0  0  0  0  0  0  0
   19.7879   -1.8618   18.9741 O   0  0  0  0  0  0  0  0  0  0  0  0
   19.2379   -2.1271   16.4920 C   0  0  0  0  0  0  0  0  0  0  0  0
   20.4056   -1.4442   16.0814 C   0  0  0  0  0  0  0  0  0  0  0  0
   20.4304   -1.5778   14.7139 C   0  0  0  0  0  0  0  0  0  0  0  0
   19.3211   -2.3007   14.3864 N   0  0  0  0  0  0  0  0  0  0  0  0
   18.8860   -2.6490   13.0603 C   0  0  0  0  0  0  0  0  0  0  0  0
   18.5695   -2.6475   15.4438 N   0  0  0  0  0  0  0  0  0  0  0  0
   13.8698   -0.8248   16.3911 N   0  0  0  0  0  0  0  0  0  0  0  0
   16.0356   -5.1858   17.1828 H   0  0  0  0  0  0  0  0  0  0  0  0
   14.7224   -4.8753   16.0432 H   0  0  0  0  0  0  0  0  0  0  0  0
   15.6146   -3.5427   16.7249 H   0  0  0  0  0  0  0  0  0  0  0  0
   13.5820   -5.3715   18.0913 H   0  0  0  0  0  0  0  0  0  0  0  0
   15.8565   -4.6571   19.5266 H   0  0  0  0  0  0  0  0  0  0  0  0
   14.2521   -4.7820   20.2259 H   0  0  0  0  0  0  0  0  0  0  0  0
   14.2230   -2.5345   20.5940 H   0  0  0  0  0  0  0  0  0  0  0  0
   15.7326   -2.3030   19.7065 H   0  0  0  0  0  0  0  0  0  0  0  0
   12.5194   -3.4908   18.7732 H   0  0  0  0  0  0  0  0  0  0  0  0
   11.9626   -4.1923   16.5079 H   0  0  0  0  0  0  0  0  0  0  0  0
   11.4877   -2.5237   14.9693 H   0  0  0  0  0  0  0  0  0  0  0  0
   11.0947    0.0920   14.7520 H   0  0  0  0  0  0  0  0  0  0  0  0
   12.7705    3.1448   15.4181 H   0  0  0  0  0  0  0  0  0  0  0  0
   16.0175    1.3896   17.5418 H   0  0  0  0  0  0  0  0  0  0  0  0
   15.1521    0.2925   18.6106 H   0  0  0  0  0  0  0  0  0  0  0  0
   16.0555   -1.6495   17.1988 H   0  0  0  0  0  0  0  0  0  0  0  0
   16.9926   -0.4619   16.2848 H   0  0  0  0  0  0  0  0  0  0  0  0
   17.2335   -0.7669   19.2415 H   0  0  0  0  0  0  0  0  0  0  0  0
   21.1104   -0.9099   16.7039 H   0  0  0  0  0  0  0  0  0  0  0  0
   21.1229   -1.2164   13.9664 H   0  0  0  0  0  0  0  0  0  0  0  0
   17.9064   -2.1966   12.8861 H   0  0  0  0  0  0  0  0  0  0  0  0
   19.6043   -2.2740   12.3271 H   0  0  0  0  0  0  0  0  0  0  0  0
   18.8214   -3.7380   12.9926 H   0  0  0  0  0  0  0  0  0  0  0  0
  1  2  1  0
  2  3  1  0
  3  4  1  0
  4  5  1  0
  5  6  1  0
  6  7  1  0
  7  8  2  3
  8  9  1  0
  9 10  2  0
 10 11  1  0
 11 12  1  0
 11 13  2  0
 13 14  1  0
 14 15  1  0
 15 16  1  0
 16 17  1  0
 17 18  1  0
 18 19  2  0
 18 20  2  0
 18 21  1  0
 21 22  1  0
 22 23  2  0
 23 24  1  0
 24 25  1  0
 24 26  1  0
 14 27  2  0
  6  2  1  0
 27  9  1  0
 26 21  2  0
  1 28  1  0
  1 29  1  0
  1 30  1  0
  2 31  1  0
  3 32  1  0
  3 33  1  0
  4 34  1  0
  4 35  1  0
  6 36  1  0
  7 37  1  0
  8 38  1  0
 10 39  1  0
 12 40  1  0
 15 41  1  0
 15 42  1  0
 16 43  1  0
 16 44  1  0
 17 45  1  0
 22 46  1  0
 23 47  1  0
 25 48  1  0
 25 49  1  0
 25 50  1  0
M  END
>  <Energy>  (957) 
-3.4309818680033675

>  <compound_id>  (957) 
3003

>  <target_id>  (957) 
1

>  <reference_id>  (957) 
60

>  <inspiration_ids>  (957) 
[191, 60]

>  <energy_score>  (957) 
-69.69928301379838

>  <distance_score>  (957) 
1.2491898147936353

>  <path>  (957) 
/opt/xchem-fragalysis-2/maxwin/BulkDock/SCRATCH/505736/C3003-P60/C3003-P60.minimised.mol

>  <scratch_subdir>  (957) 
/opt/xchem-fragalysis-2/maxwin/BulkDock/SCRATCH/505736/C3003-P60

>  <fragmenstein_runtime>  (957) 
3.3223814964294434

>  <fragmenstein_outcome>  (957) 
too moved

>  <fragmenstein_mode>  (957) 
expansion

>  <fragmenstein_error>  (957) 


$$$$
C3004-P191
     RDKit          3D

 60 62  0  0  0  0  0  0  0  0999 V2000
   15.2226   -0.6309   13.8515 C   0  0  0  0  0  0  0  0  0  0  0  0
   16.1712   -1.7016   14.3700 C   0  0  0  0  0  0  0  0  0  0  0  0
   17.2220   -1.0643   15.0988 O   0  0  0  0  0  0  0  0  0  0  0  0
   18.3939   -1.8800   15.3745 C   0  0  0  0  0  0  0  0  0  0  0  0
   18.9953   -1.5857   16.7463 C   0  0  0  0  0  0  0  0  0  0  0  0
   18.0568   -2.1749   18.1520 S   0  0  0  0  0  0  0  0  0  0  0  0
   17.3016   -3.3444   17.7601 O   0  0  0  0  0  0  0  0  0  0  0  0
   18.9694   -2.2665   19.2755 O   0  0  0  0  0  0  0  0  0  0  0  0
   17.0117   -0.9537   18.5811 N   0  0  0  0  0  0  0  0  0  0  0  0
   15.7793   -0.6347   17.8555 C   0  0  0  0  0  0  0  0  0  0  0  0
   14.7161   -1.7245   17.9070 C   0  0  0  0  0  0  0  0  0  0  0  0
   13.5773   -1.4351   16.9654 C   0  0  0  0  0  0  0  0  0  0  0  0
   13.0083   -2.4848   16.3461 N   0  0  0  0  0  0  0  0  0  0  0  0
   11.9897   -2.2245   15.4984 C   0  0  0  0  0  0  0  0  0  0  0  0
   11.3466   -3.3790   14.8168 C   0  0  0  0  0  0  0  0  0  0  0  0
   11.5440   -0.9544   15.2339 C   0  0  0  0  0  0  0  0  0  0  0  0
   12.1919    0.0267   15.9216 C   0  0  0  0  0  0  0  0  0  0  0  0
   11.8091    1.3211   15.7739 O   0  0  0  0  0  0  0  0  0  0  0  0
   13.1892   -0.1595   16.7935 N   0  0  0  0  0  0  0  0  0  0  0  0
   19.4349   -0.1762   16.5997 N   0  0  0  0  0  0  0  0  0  0  0  0
   20.0168   -0.1223   15.2117 N   0  0  0  0  0  0  0  0  0  0  0  0
   19.6355    1.1496   14.5955 C   0  0  0  0  0  0  0  0  0  0  0  0
   19.5760   -1.3679   14.4880 C   0  0  0  0  0  0  0  0  0  0  0  0
   19.2007   -1.2060   13.0000 C   0  0  0  0  0  0  0  0  0  0  0  0
   19.0912   -2.5280   12.2283 C   0  0  0  0  0  0  0  0  0  0  0  0
   19.3185   -3.7956   13.0412 C   0  0  0  0  0  0  0  0  0  0  0  0
   19.4794   -4.8817   12.1375 O   0  0  0  0  0  0  0  0  0  0  0  0
   20.5317   -3.7162   13.9578 C   0  0  0  0  0  0  0  0  0  0  0  0
   20.8184   -2.3113   14.4865 C   0  0  0  0  0  0  0  0  0  0  0  0
   14.3400   -1.0814   13.3900 H   0  0  0  0  0  0  0  0  0  0  0  0
   15.7291   -0.0141   13.1013 H   0  0  0  0  0  0  0  0  0  0  0  0
   14.9162    0.0485   14.6496 H   0  0  0  0  0  0  0  0  0  0  0  0
   15.6514   -2.3928   15.0383 H   0  0  0  0  0  0  0  0  0  0  0  0
   16.5705   -2.2742   13.5299 H   0  0  0  0  0  0  0  0  0  0  0  0
   18.1534   -2.9392   15.2864 H   0  0  0  0  0  0  0  0  0  0  0  0
   19.9027   -2.1859   16.8881 H   0  0  0  0  0  0  0  0  0  0  0  0
   17.0507   -0.7389   19.5789 H   0  0  0  0  0  0  0  0  0  0  0  0
   16.0174   -0.3309   16.8410 H   0  0  0  0  0  0  0  0  0  0  0  0
   15.3736    0.2721   18.3247 H   0  0  0  0  0  0  0  0  0  0  0  0
   15.1166   -2.7007   17.6334 H   0  0  0  0  0  0  0  0  0  0  0  0
   14.3292   -1.8198   18.9268 H   0  0  0  0  0  0  0  0  0  0  0  0
   11.5010   -4.2730   15.4153 H   0  0  0  0  0  0  0  0  0  0  0  0
   10.2710   -3.2100   14.7472 H   0  0  0  0  0  0  0  0  0  0  0  0
   11.7632   -3.5233   13.8165 H   0  0  0  0  0  0  0  0  0  0  0  0
   10.7370   -0.7393   14.5463 H   0  0  0  0  0  0  0  0  0  0  0  0
   12.3968    1.7718   16.4065 H   0  0  0  0  0  0  0  0  0  0  0  0
   18.5763    0.3858   16.6476 H   0  0  0  0  0  0  0  0  0  0  0  0
   20.1423    1.2872   13.6355 H   0  0  0  0  0  0  0  0  0  0  0  0
   18.5545    1.2396   14.4431 H   0  0  0  0  0  0  0  0  0  0  0  0
   19.9566    1.9868   15.2268 H   0  0  0  0  0  0  0  0  0  0  0  0
   19.9788   -0.6186   12.4929 H   0  0  0  0  0  0  0  0  0  0  0  0
   18.2826   -0.6244   12.8664 H   0  0  0  0  0  0  0  0  0  0  0  0
   18.1143   -2.5875   11.7312 H   0  0  0  0  0  0  0  0  0  0  0  0
   19.8095   -2.5046   11.3966 H   0  0  0  0  0  0  0  0  0  0  0  0
   18.4212   -4.0144   13.6191 H   0  0  0  0  0  0  0  0  0  0  0  0
   19.3509   -5.7129   12.6281 H   0  0  0  0  0  0  0  0  0  0  0  0
   20.3683   -4.3973   14.8031 H   0  0  0  0  0  0  0  0  0  0  0  0
   21.4273   -4.1004   13.4529 H   0  0  0  0  0  0  0  0  0  0  0  0
   21.5888   -1.8610   13.8419 H   0  0  0  0  0  0  0  0  0  0  0  0
   21.3090   -2.3961   15.4623 H   0  0  0  0  0  0  0  0  0  0  0  0
  1  2  1  0
  2  3  1  0
  3  4  1  0
  4  5  1  0
  5  6  1  0
  6  7  2  0
  6  8  2  0
  6  9  1  0
  9 10  1  0
 10 11  1  0
 11 12  1  0
 12 13  2  0
 13 14  1  0
 14 15  1  0
 14 16  2  0
 16 17  1  0
 17 18  1  0
 17 19  2  0
  5 20  1  0
 20 21  1  0
 21 22  1  0
 21 23  1  0
 23 24  1  0
 24 25  1  0
 25 26  1  0
 26 27  1  0
 26 28  1  0
 28 29  1  0
 23  4  1  0
 19 12  1  0
 29 23  1  0
  1 30  1  0
  1 31  1  0
  1 32  1  0
  2 33  1  0
  2 34  1  0
  4 35  1  0
  5 36  1  0
  9 37  1  0
 10 38  1  0
 10 39  1  0
 11 40  1  0
 11 41  1  0
 15 42  1  0
 15 43  1  0
 15 44  1  0
 16 45  1  0
 18 46  1  0
 20 47  1  0
 22 48  1  0
 22 49  1  0
 22 50  1  0
 24 51  1  0
 24 52  1  0
 25 53  1  0
 25 54  1  0
 26 55  1  0
 27 56  1  0
 28 57  1  0
 28 58  1  0
 29 59  1  0
 29 60  1  0
M  END
>  <Energy>  (958) 
56.037457745214894

>  <compound_id>  (958) 
3004

>  <target_id>  (958) 
1

>  <reference_id>  (958) 
191

>  <inspiration_ids>  (958) 
[191, 61]

>  <energy_score>  (958) 
-54.273769776882546

>  <distance_score>  (958) 
1.211665896396698

>  <path>  (958) 
/opt/xchem-fragalysis-2/maxwin/BulkDock/SCRATCH/505736/C3004-P191/C3004-P191.minimised.mol

>  <scratch_subdir>  (958) 
/opt/xchem-fragalysis-2/maxwin/BulkDock/SCRATCH/505736/C3004-P191

>  <fragmenstein_runtime>  (958) 
60.7577428817749

>  <fragmenstein_outcome>  (958) 
too moved

>  <fragmenstein_mode>  (958) 
expansion

>  <fragmenstein_error>  (958) 


$$$$
C3004-P61
     RDKit          3D

 60 62  0  0  0  0  0  0  0  0999 V2000
   15.1806   -0.6921   13.8509 C   0  0  0  0  0  0  0  0  0  0  0  0
   16.0741   -1.7913   14.4055 C   0  0  0  0  0  0  0  0  0  0  0  0
   17.2336   -1.1819   14.9826 O   0  0  0  0  0  0  0  0  0  0  0  0
   18.3188   -2.0969   15.3039 C   0  0  0  0  0  0  0  0  0  0  0  0
   19.0158   -1.7271   16.6091 C   0  0  0  0  0  0  0  0  0  0  0  0
   18.1239   -2.0826   18.1216 S   0  0  0  0  0  0  0  0  0  0  0  0
   17.1707   -3.1423   17.8728 O   0  0  0  0  0  0  0  0  0  0  0  0
   19.1129   -2.2350   19.1715 O   0  0  0  0  0  0  0  0  0  0  0  0
   17.3082   -0.6822   18.5204 N   0  0  0  0  0  0  0  0  0  0  0  0
   16.0860   -0.2820   17.8232 C   0  0  0  0  0  0  0  0  0  0  0  0
   14.8712   -1.0264   18.3445 C   0  0  0  0  0  0  0  0  0  0  0  0
   13.8012   -1.1059   17.2987 C   0  0  0  0  0  0  0  0  0  0  0  0
   13.3631   -2.3299   16.9895 N   0  0  0  0  0  0  0  0  0  0  0  0
   12.3467   -2.4270   16.1159 C   0  0  0  0  0  0  0  0  0  0  0  0
   11.8646   -3.8039   15.8826 C   0  0  0  0  0  0  0  0  0  0  0  0
   11.7551   -1.3368   15.5305 C   0  0  0  0  0  0  0  0  0  0  0  0
   12.2872   -0.1402   15.9161 C   0  0  0  0  0  0  0  0  0  0  0  0
   11.7696    1.0217   15.4423 O   0  0  0  0  0  0  0  0  0  0  0  0
   13.2883    0.0270   16.7904 N   0  0  0  0  0  0  0  0  0  0  0  0
   19.5579   -0.3816   16.2853 N   0  0  0  0  0  0  0  0  0  0  0  0
   20.1206   -0.5617   14.8965 N   0  0  0  0  0  0  0  0  0  0  0  0
   19.9003    0.6732   14.1423 C   0  0  0  0  0  0  0  0  0  0  0  0
   19.5011   -1.8103   14.3193 C   0  0  0  0  0  0  0  0  0  0  0  0
   19.0632   -1.7496   12.8400 C   0  0  0  0  0  0  0  0  0  0  0  0
   18.7606   -3.1200   12.2126 C   0  0  0  0  0  0  0  0  0  0  0  0
   18.8802   -4.3230   13.1418 C   0  0  0  0  0  0  0  0  0  0  0  0
   18.8494   -5.5196   12.3566 O   0  0  0  0  0  0  0  0  0  0  0  0
   20.1509   -4.2958   13.9850 C   0  0  0  0  0  0  0  0  0  0  0  0
   20.6243   -2.8911   14.3585 C   0  0  0  0  0  0  0  0  0  0  0  0
   14.2373   -1.1040   13.4830 H   0  0  0  0  0  0  0  0  0  0  0  0
   15.6837   -0.1836   13.0214 H   0  0  0  0  0  0  0  0  0  0  0  0
   14.9813    0.0734   14.6045 H   0  0  0  0  0  0  0  0  0  0  0  0
   15.5555   -2.3620   15.1802 H   0  0  0  0  0  0  0  0  0  0  0  0
   16.3549   -2.4757   13.6019 H   0  0  0  0  0  0  0  0  0  0  0  0
   17.9631   -3.1260   15.3417 H   0  0  0  0  0  0  0  0  0  0  0  0
   19.8789   -2.3852   16.7690 H   0  0  0  0  0  0  0  0  0  0  0  0
   17.9035    0.0461   18.9167 H   0  0  0  0  0  0  0  0  0  0  0  0
   16.2094   -0.3820   16.7541 H   0  0  0  0  0  0  0  0  0  0  0  0
   15.9461    0.7938   17.9901 H   0  0  0  0  0  0  0  0  0  0  0  0
   15.1181   -2.0368   18.6844 H   0  0  0  0  0  0  0  0  0  0  0  0
   14.4694   -0.5066   19.2229 H   0  0  0  0  0  0  0  0  0  0  0  0
   12.7316   -4.4628   15.8161 H   0  0  0  0  0  0  0  0  0  0  0  0
   11.2831   -4.1512   16.7299 H   0  0  0  0  0  0  0  0  0  0  0  0
   11.2555   -3.8550   14.9776 H   0  0  0  0  0  0  0  0  0  0  0  0
   10.9359   -1.4053   14.8283 H   0  0  0  0  0  0  0  0  0  0  0  0
   12.3317    1.6727   15.9012 H   0  0  0  0  0  0  0  0  0  0  0  0
   18.7372    0.2351   16.2377 H   0  0  0  0  0  0  0  0  0  0  0  0
   20.4030    0.6334   13.1711 H   0  0  0  0  0  0  0  0  0  0  0  0
   18.8379    0.8896   13.9854 H   0  0  0  0  0  0  0  0  0  0  0  0
   20.3415    1.5246   14.6742 H   0  0  0  0  0  0  0  0  0  0  0  0
   19.8718   -1.3107   12.2395 H   0  0  0  0  0  0  0  0  0  0  0  0
   18.2094   -1.0805   12.6897 H   0  0  0  0  0  0  0  0  0  0  0  0
   17.7608   -3.1060   11.7608 H   0  0  0  0  0  0  0  0  0  0  0  0
   19.4343   -3.2663   11.3566 H   0  0  0  0  0  0  0  0  0  0  0  0
   17.9994   -4.3781   13.7839 H   0  0  0  0  0  0  0  0  0  0  0  0
   19.0695   -6.2602   12.9500 H   0  0  0  0  0  0  0  0  0  0  0  0
   19.9670   -4.8731   14.9005 H   0  0  0  0  0  0  0  0  0  0  0  0
   20.9662   -4.8249   13.4751 H   0  0  0  0  0  0  0  0  0  0  0  0
   21.4057   -2.5983   13.6406 H   0  0  0  0  0  0  0  0  0  0  0  0
   21.1530   -2.9423   15.3165 H   0  0  0  0  0  0  0  0  0  0  0  0
  1  2  1  0
  2  3  1  0
  3  4  1  0
  4  5  1  0
  5  6  1  0
  6  7  2  0
  6  8  2  0
  6  9  1  0
  9 10  1  0
 10 11  1  0
 11 12  1  0
 12 13  2  0
 13 14  1  0
 14 15  1  0
 14 16  2  0
 16 17  1  0
 17 18  1  0
 17 19  2  0
  5 20  1  0
 20 21  1  0
 21 22  1  0
 21 23  1  0
 23 24  1  0
 24 25  1  0
 25 26  1  0
 26 27  1  0
 26 28  1  0
 28 29  1  0
 23  4  1  0
 19 12  1  0
 29 23  1  0
  1 30  1  0
  1 31  1  0
  1 32  1  0
  2 33  1  0
  2 34  1  0
  4 35  1  0
  5 36  1  0
  9 37  1  0
 10 38  1  0
 10 39  1  0
 11 40  1  0
 11 41  1  0
 15 42  1  0
 15 43  1  0
 15 44  1  0
 16 45  1  0
 18 46  1  0
 20 47  1  0
 22 48  1  0
 22 49  1  0
 22 50  1  0
 24 51  1  0
 24 52  1  0
 25 53  1  0
 25 54  1  0
 26 55  1  0
 27 56  1  0
 28 57  1  0
 28 58  1  0
 29 59  1  0
 29 60  1  0
M  END
>  <Energy>  (959) 
56.788013150684684

>  <compound_id>  (959) 
3004

>  <target_id>  (959) 
1

>  <reference_id>  (959) 
61

>  <inspiration_ids>  (959) 
[191, 61]

>  <energy_score>  (959) 
-53.52321437141242

>  <distance_score>  (959) 
1.295479933301431

>  <path>  (959) 
/opt/xchem-fragalysis-2/maxwin/BulkDock/SCRATCH/505736/C3004-P61/C3004-P61.minimised.mol

>  <scratch_subdir>  (959) 
/opt/xchem-fragalysis-2/maxwin/BulkDock/SCRATCH/505736/C3004-P61

>  <fragmenstein_runtime>  (959) 
56.27637076377869

>  <fragmenstein_outcome>  (959) 
too moved

>  <fragmenstein_mode>  (959) 
expansion

>  <fragmenstein_error>  (959) 


$$$$
C3006-P191
     RDKit          3D

 64 66  0  0  0  0  0  0  0  0999 V2000
   19.3227   -2.9468   16.8856 C   0  0  0  0  0  0  0  0  0  0  0  0
   18.8063   -2.9009   15.4657 C   0  0  0  0  0  0  0  0  0  0  0  0
   17.6734   -1.9034   15.2371 C   0  0  0  0  0  0  0  0  0  0  0  0
   17.8239   -0.9345   14.5982 O   0  0  0  0  0  0  0  0  0  0  0  0
   16.3893   -2.4883   15.8946 N   0  0  0  0  0  0  0  0  0  0  0  0
   15.0529   -2.0631   15.8215 C   0  0  0  0  0  0  0  0  0  0  0  0
   14.0957   -2.8737   16.4491 C   0  0  0  0  0  0  0  0  0  0  0  0
   12.7260   -2.6599   16.2464 C   0  0  0  0  0  0  0  0  0  0  0  0
   12.2797   -1.5939   15.4555 C   0  0  0  0  0  0  0  0  0  0  0  0
   10.8133   -1.4384   15.1576 C   0  0  0  0  0  0  0  0  0  0  0  0
   10.2880   -0.0409   14.7915 C   0  0  0  0  0  0  0  0  0  0  0  0
   10.5111    0.9547   15.8562 N   0  0  0  0  0  0  0  0  0  0  0  0
    9.9979    2.2630   15.4177 C   0  0  0  0  0  0  0  0  0  0  0  0
   10.8259    3.3380   15.9706 N   0  0  0  0  0  0  0  0  0  0  0  0
   10.3870    4.5702   16.3751 C   0  0  0  0  0  0  0  0  0  0  0  0
   11.5151    5.3144   16.6310 C   0  0  0  0  0  0  0  0  0  0  0  0
   12.5914    4.4450   16.3415 C   0  0  0  0  0  0  0  0  0  0  0  0
   14.2772    4.8665   16.5159 S   0  0  0  0  0  0  0  0  0  0  0  0
   14.3664    5.4576   17.8336 O   0  0  0  0  0  0  0  0  0  0  0  0
   14.5896    5.6111   15.3155 O   0  0  0  0  0  0  0  0  0  0  0  0
   15.1550    3.4321   16.4775 N   0  0  0  0  0  0  0  0  0  0  0  0
   16.5881    3.5466   16.7862 C   0  0  0  0  0  0  0  0  0  0  0  0
   17.2375    2.1697   16.8774 C   0  0  0  0  0  0  0  0  0  0  0  0
   16.7935    1.3182   18.0363 C   0  0  0  0  0  0  0  0  0  0  0  0
   16.0966    1.8742   19.0474 N   0  0  0  0  0  0  0  0  0  0  0  0
   15.7549    1.0815   20.0823 C   0  0  0  0  0  0  0  0  0  0  0  0
   14.9544    1.6921   21.1915 C   0  0  0  0  0  0  0  0  0  0  0  0
   16.1427   -0.2364   20.1537 C   0  0  0  0  0  0  0  0  0  0  0  0
   16.8741   -0.6933   19.0871 C   0  0  0  0  0  0  0  0  0  0  0  0
   17.3259   -1.9800   19.0538 O   0  0  0  0  0  0  0  0  0  0  0  0
   17.2102    0.0409   18.0245 N   0  0  0  0  0  0  0  0  0  0  0  0
   12.1717    3.2411   15.9058 N   0  0  0  0  0  0  0  0  0  0  0  0
   13.2337   -0.7427   14.8980 C   0  0  0  0  0  0  0  0  0  0  0  0
   14.5991   -0.9631   15.0868 C   0  0  0  0  0  0  0  0  0  0  0  0
   15.3940   -0.0459   14.4585 O   0  0  0  0  0  0  0  0  0  0  0  0
   20.2740   -3.4872   16.9244 H   0  0  0  0  0  0  0  0  0  0  0  0
   18.6241   -3.4769   17.5375 H   0  0  0  0  0  0  0  0  0  0  0  0
   19.4838   -1.9409   17.2844 H   0  0  0  0  0  0  0  0  0  0  0  0
   19.6272   -2.6143   14.7966 H   0  0  0  0  0  0  0  0  0  0  0  0
   18.4771   -3.8951   15.1424 H   0  0  0  0  0  0  0  0  0  0  0  0
   16.6321   -3.3013   16.4470 H   0  0  0  0  0  0  0  0  0  0  0  0
   14.4017   -3.7261   17.0511 H   0  0  0  0  0  0  0  0  0  0  0  0
   12.0180   -3.3556   16.6902 H   0  0  0  0  0  0  0  0  0  0  0  0
   10.2505   -1.7646   16.0316 H   0  0  0  0  0  0  0  0  0  0  0  0
   10.5700   -2.1384   14.3519 H   0  0  0  0  0  0  0  0  0  0  0  0
   10.7427    0.2898   13.8499 H   0  0  0  0  0  0  0  0  0  0  0  0
    9.2100   -0.1317   14.6178 H   0  0  0  0  0  0  0  0  0  0  0  0
   11.5263    1.0767   15.9779 H   0  0  0  0  0  0  0  0  0  0  0  0
   10.0840    2.4075   14.3358 H   0  0  0  0  0  0  0  0  0  0  0  0
    8.9700    2.4143   15.7588 H   0  0  0  0  0  0  0  0  0  0  0  0
    9.3332    4.8076   16.4371 H   0  0  0  0  0  0  0  0  0  0  0  0
   11.5701    6.3386   16.9747 H   0  0  0  0  0  0  0  0  0  0  0  0
   14.9210    2.8818   15.6477 H   0  0  0  0  0  0  0  0  0  0  0  0
   16.7343    4.1005   17.7199 H   0  0  0  0  0  0  0  0  0  0  0  0
   17.0722    4.1058   15.9773 H   0  0  0  0  0  0  0  0  0  0  0  0
   18.3228    2.3012   16.9657 H   0  0  0  0  0  0  0  0  0  0  0  0
   17.0556    1.6165   15.9492 H   0  0  0  0  0  0  0  0  0  0  0  0
   14.0992    1.0575   21.4434 H   0  0  0  0  0  0  0  0  0  0  0  0
   15.5804    1.8174   22.0803 H   0  0  0  0  0  0  0  0  0  0  0  0
   14.5708    2.6746   20.8978 H   0  0  0  0  0  0  0  0  0  0  0  0
   15.8754   -0.8596   20.9946 H   0  0  0  0  0  0  0  0  0  0  0  0
   17.1350   -2.3789   19.9161 H   0  0  0  0  0  0  0  0  0  0  0  0
   12.9464    0.0950   14.2674 H   0  0  0  0  0  0  0  0  0  0  0  0
   16.3337   -0.2863   14.5851 H   0  0  0  0  0  0  0  0  0  0  0  0
  1  2  1  0
  2  3  1  0
  3  4  2  0
  3  5  1  0
  5  6  1  0
  6  7  2  0
  7  8  1  0
  8  9  2  0
  9 10  1  0
 10 11  1  0
 11 12  1  0
 12 13  1  0
 13 14  1  0
 14 15  1  0
 15 16  2  0
 16 17  1  0
 17 18  1  0
 18 19  2  0
 18 20  2  0
 18 21  1  0
 21 22  1  0
 22 23  1  0
 23 24  1  0
 24 25  2  0
 25 26  1  0
 26 27  1  0
 26 28  2  0
 28 29  1  0
 29 30  1  0
 29 31  2  0
 17 32  2  0
  9 33  1  0
 33 34  2  0
 34 35  1  0
 34  6  1  0
 32 14  1  0
 31 24  1  0
  1 36  1  0
  1 37  1  0
  1 38  1  0
  2 39  1  0
  2 40  1  0
  5 41  1  0
  7 42  1  0
  8 43  1  0
 10 44  1  0
 10 45  1  0
 11 46  1  0
 11 47  1  0
 12 48  1  0
 13 49  1  0
 13 50  1  0
 15 51  1  0
 16 52  1  0
 21 53  1  0
 22 54  1  0
 22 55  1  0
 23 56  1  0
 23 57  1  0
 27 58  1  0
 27 59  1  0
 27 60  1  0
 28 61  1  0
 30 62  1  0
 33 63  1  0
 35 64  1  0
M  END
>  <Energy>  (960) 
41.954911129211808

>  <compound_id>  (960) 
3006

>  <target_id>  (960) 
1

>  <reference_id>  (960) 
191

>  <inspiration_ids>  (960) 
[191, 71]

>  <energy_score>  (960) 
-71.5476074195044

>  <distance_score>  (960) 
1.6737228725540598

>  <path>  (960) 
/opt/xchem-fragalysis-2/maxwin/BulkDock/SCRATCH/505736/C3006-P191/C3006-P191.minimised.mol

>  <scratch_subdir>  (960) 
/opt/xchem-fragalysis-2/maxwin/BulkDock/SCRATCH/505736/C3006-P191

>  <fragmenstein_runtime>  (960) 
3.98256254196167

>  <fragmenstein_outcome>  (960) 
too moved

>  <fragmenstein_mode>  (960) 
expansion

>  <fragmenstein_error>  (960) 


$$$$
C3006-P71
     RDKit          3D

 64 66  0  0  0  0  0  0  0  0999 V2000
   18.7068   -4.6848   18.6526 C   0  0  0  0  0  0  0  0  0  0  0  0
   17.2170   -4.4091   18.5398 C   0  0  0  0  0  0  0  0  0  0  0  0
   16.8995   -3.2332   17.6124 C   0  0  0  0  0  0  0  0  0  0  0  0
   17.7765   -2.5736   17.1300 O   0  0  0  0  0  0  0  0  0  0  0  0
   15.4696   -3.1244   17.4963 N   0  0  0  0  0  0  0  0  0  0  0  0
   14.6756   -2.2809   16.7192 C   0  0  0  0  0  0  0  0  0  0  0  0
   12.9236   -2.6333   16.8020 C   0  0  0  0  0  0  0  0  0  0  0  0
   11.7863   -1.7859   15.7331 C   0  0  0  0  0  0  0  0  0  0  0  0
   12.5858   -0.6119   14.5432 C   0  0  0  0  0  0  0  0  0  0  0  0
   12.8114   -1.5976   13.4953 C   0  0  0  0  0  0  0  0  0  0  0  0
   13.5899   -1.8724   14.8176 C   0  0  0  0  0  0  0  0  0  0  0  0
   13.3736   -0.5921   16.4235 N   0  0  0  0  0  0  0  0  0  0  0  0
   14.1137    0.5368   17.1278 C   0  0  0  0  0  0  0  0  0  0  0  0
   13.8582    1.8750   16.5650 N   0  0  0  0  0  0  0  0  0  0  0  0
   12.6553    2.5018   16.3648 C   0  0  0  0  0  0  0  0  0  0  0  0
   12.9441    3.8148   16.0619 C   0  0  0  0  0  0  0  0  0  0  0  0
   14.3518    3.8919   16.1089 C   0  0  0  0  0  0  0  0  0  0  0  0
   15.2893    5.3647   15.9867 S   0  0  0  0  0  0  0  0  0  0  0  0
   14.6690    6.2805   16.9222 O   0  0  0  0  0  0  0  0  0  0  0  0
   15.3584    5.6673   14.5737 O   0  0  0  0  0  0  0  0  0  0  0  0
   16.8782    5.0897   16.5387 N   0  0  0  0  0  0  0  0  0  0  0  0
   16.9867    4.4547   17.8833 C   0  0  0  0  0  0  0  0  0  0  0  0
   17.6761    3.0912   17.7636 C   0  0  0  0  0  0  0  0  0  0  0  0
   17.2597    2.0768   18.8000 C   0  0  0  0  0  0  0  0  0  0  0  0
   16.3159    2.4051   19.7078 N   0  0  0  0  0  0  0  0  0  0  0  0
   15.9384    1.4600   20.5960 C   0  0  0  0  0  0  0  0  0  0  0  0
   14.8638    1.8206   21.5753 C   0  0  0  0  0  0  0  0  0  0  0  0
   16.4969    0.2045   20.6112 C   0  0  0  0  0  0  0  0  0  0  0  0
   17.4475   -0.0141   19.6541 C   0  0  0  0  0  0  0  0  0  0  0  0
   18.0476   -1.2287   19.5691 O   0  0  0  0  0  0  0  0  0  0  0  0
   17.8529    0.8700   18.7402 N   0  0  0  0  0  0  0  0  0  0  0  0
   14.9063    2.6973   16.3684 N   0  0  0  0  0  0  0  0  0  0  0  0
   14.3427   -0.0498   14.5999 C   0  0  0  0  0  0  0  0  0  0  0  0
   15.3797   -1.0181   15.6672 C   0  0  0  0  0  0  0  0  0  0  0  0
   16.7210   -0.8040   15.5501 O   0  0  0  0  0  0  0  0  0  0  0  0
   18.8868   -5.5380   19.3138 H   0  0  0  0  0  0  0  0  0  0  0  0
   19.2397   -3.8196   19.0597 H   0  0  0  0  0  0  0  0  0  0  0  0
   19.1385   -4.9138   17.6727 H   0  0  0  0  0  0  0  0  0  0  0  0
   16.7169   -5.3053   18.1546 H   0  0  0  0  0  0  0  0  0  0  0  0
   16.8135   -4.1848   19.5338 H   0  0  0  0  0  0  0  0  0  0  0  0
   15.0362   -3.8026   18.1088 H   0  0  0  0  0  0  0  0  0  0  0  0
   12.5752   -3.4585   17.4152 H   0  0  0  0  0  0  0  0  0  0  0  0
   10.7873   -2.1637   15.5420 H   0  0  0  0  0  0  0  0  0  0  0  0
   13.3937   -1.2469   12.6446 H   0  0  0  0  0  0  0  0  0  0  0  0
   11.9706   -2.2521   13.2790 H   0  0  0  0  0  0  0  0  0  0  0  0
   14.5998   -2.2053   14.4177 H   0  0  0  0  0  0  0  0  0  0  0  0
   13.3310   -2.9640   14.9615 H   0  0  0  0  0  0  0  0  0  0  0  0
   12.4403   -0.1670   16.4115 H   0  0  0  0  0  0  0  0  0  0  0  0
   13.6608    0.5935   18.1267 H   0  0  0  0  0  0  0  0  0  0  0  0
   15.1811    0.4303   17.3424 H   0  0  0  0  0  0  0  0  0  0  0  0
   11.7137    1.9911   16.4921 H   0  0  0  0  0  0  0  0  0  0  0  0
   12.2429    4.6197   15.8943 H   0  0  0  0  0  0  0  0  0  0  0  0
   17.4252    5.9425   16.4364 H   0  0  0  0  0  0  0  0  0  0  0  0
   15.9984    4.3887   18.3477 H   0  0  0  0  0  0  0  0  0  0  0  0
   17.5781    5.1148   18.5291 H   0  0  0  0  0  0  0  0  0  0  0  0
   18.7610    3.2363   17.8405 H   0  0  0  0  0  0  0  0  0  0  0  0
   17.5004    2.6483   16.7762 H   0  0  0  0  0  0  0  0  0  0  0  0
   14.0055    1.1513   21.4590 H   0  0  0  0  0  0  0  0  0  0  0  0
   15.2430    1.7448   22.5990 H   0  0  0  0  0  0  0  0  0  0  0  0
   14.5184    2.8469   21.4141 H   0  0  0  0  0  0  0  0  0  0  0  0
   16.2082   -0.5615   21.3154 H   0  0  0  0  0  0  0  0  0  0  0  0
   18.5253   -1.1380   18.7197 H   0  0  0  0  0  0  0  0  0  0  0  0
   14.7675    0.5939   13.8371 H   0  0  0  0  0  0  0  0  0  0  0  0
   17.1787   -1.4108   16.1669 H   0  0  0  0  0  0  0  0  0  0  0  0
  1  2  1  0
  2  3  1  0
  3  4  2  0
  3  5  1  0
  5  6  1  0
  6  7  2  0
  7  8  1  0
  8  9  2  0
  9 10  1  0
 10 11  1  0
 11 12  1  0
 12 13  1  0
 13 14  1  0
 14 15  1  0
 15 16  2  0
 16 17  1  0
 17 18  1  0
 18 19  2  0
 18 20  2  0
 18 21  1  0
 21 22  1  0
 22 23  1  0
 23 24  1  0
 24 25  2  0
 25 26  1  0
 26 27  1  0
 26 28  2  0
 28 29  1  0
 29 30  1  0
 29 31  2  0
 17 32  2  0
  9 33  1  0
 33 34  2  0
 34 35  1  0
 34  6  1  0
 32 14  1  0
 31 24  1  0
  1 36  1  0
  1 37  1  0
  1 38  1  0
  2 39  1  0
  2 40  1  0
  5 41  1  0
  7 42  1  0
  8 43  1  0
 10 44  1  0
 10 45  1  0
 11 46  1  0
 11 47  1  0
 12 48  1  0
 13 49  1  0
 13 50  1  0
 15 51  1  0
 16 52  1  0
 21 53  1  0
 22 54  1  0
 22 55  1  0
 23 56  1  0
 23 57  1  0
 27 58  1  0
 27 59  1  0
 27 60  1  0
 28 61  1  0
 30 62  1  0
 33 63  1  0
 35 64  1  0
M  END
>  <Energy>  (961) 
952.64856148375168

>  <compound_id>  (961) 
3006

>  <target_id>  (961) 
1

>  <reference_id>  (961) 
71

>  <inspiration_ids>  (961) 
[191, 71]

>  <energy_score>  (961) 
824.1645230926748

>  <distance_score>  (961) 
1.989768798571074

>  <path>  (961) 
/opt/xchem-fragalysis-2/maxwin/BulkDock/SCRATCH/505736/C3006-P71/C3006-P71.minimised.mol

>  <scratch_subdir>  (961) 
/opt/xchem-fragalysis-2/maxwin/BulkDock/SCRATCH/505736/C3006-P71

>  <fragmenstein_runtime>  (961) 
6.688138246536255

>  <fragmenstein_outcome>  (961) 
too moved

>  <fragmenstein_mode>  (961) 
expansion

>  <fragmenstein_error>  (961) 


$$$$
C167-P191
     RDKit          3D

 22 22  0  0  0  0  0  0  0  0999 V2000
   13.3954   -3.7616   16.8995 C   0  0  0  0  0  0  0  0  0  0  0  0
   13.6573   -2.3097   16.6203 C   0  0  0  0  0  0  0  0  0  0  0  0
   13.9672   -1.4952   17.6787 C   0  0  0  0  0  0  0  0  0  0  0  0
   14.0235   -0.1691   17.3820 C   0  0  0  0  0  0  0  0  0  0  0  0
   14.2140    0.7590   18.3381 O   0  0  0  0  0  0  0  0  0  0  0  0
   13.8994    0.3650   16.1809 N   0  0  0  0  0  0  0  0  0  0  0  0
   13.7961   -0.5043   15.1773 C   0  0  0  0  0  0  0  0  0  0  0  0
   13.9420    0.1148   13.8109 C   0  0  0  0  0  0  0  0  0  0  0  0
   15.0437    1.1962   13.7583 C   0  0  0  0  0  0  0  0  0  0  0  0
   15.1114    1.8799   12.4632 N   0  0  0  0  0  0  0  0  0  0  0  0
   13.6058   -1.8401   15.3440 N   0  0  0  0  0  0  0  0  0  0  0  0
   12.9388   -3.8969   17.8852 H   0  0  0  0  0  0  0  0  0  0  0  0
   14.3300   -4.3270   16.8725 H   0  0  0  0  0  0  0  0  0  0  0  0
   12.6882   -4.1507   16.1650 H   0  0  0  0  0  0  0  0  0  0  0  0
   14.0985   -1.8607   18.6867 H   0  0  0  0  0  0  0  0  0  0  0  0
   14.1848    1.5730   17.8026 H   0  0  0  0  0  0  0  0  0  0  0  0
   12.9744    0.5514   13.5353 H   0  0  0  0  0  0  0  0  0  0  0  0
   14.1641   -0.6731   13.0811 H   0  0  0  0  0  0  0  0  0  0  0  0
   14.8760    1.9642   14.5213 H   0  0  0  0  0  0  0  0  0  0  0  0
   16.0188    0.7435   13.9723 H   0  0  0  0  0  0  0  0  0  0  0  0
   15.2538    1.1973   11.7199 H   0  0  0  0  0  0  0  0  0  0  0  0
   14.2152    2.3260   12.2665 H   0  0  0  0  0  0  0  0  0  0  0  0
  1  2  1  0
  2  3  2  0
  3  4  1  0
  4  5  1  0
  4  6  2  0
  6  7  1  0
  7  8  1  0
  8  9  1  0
  9 10  1  0
  7 11  2  0
 11  2  1  0
  1 12  1  0
  1 13  1  0
  1 14  1  0
  3 15  1  0
  5 16  1  0
  8 17  1  0
  8 18  1  0
  9 19  1  0
  9 20  1  0
 10 21  1  0
 10 22  1  0
M  END
>  <Energy>  (962) 
-37.621300533619582

>  <compound_id>  (962) 
167

>  <target_id>  (962) 
1

>  <reference_id>  (962) 
191

>  <inspiration_ids>  (962) 
[191, 76]

>  <energy_score>  (962) 
-23.096367387978347

>  <distance_score>  (962) 
2.2694508750516755

>  <path>  (962) 
/opt/xchem-fragalysis-2/maxwin/BulkDock/SCRATCH/505736/C167-P191/C167-P191.minimised.mol

>  <scratch_subdir>  (962) 
/opt/xchem-fragalysis-2/maxwin/BulkDock/SCRATCH/505736/C167-P191

>  <fragmenstein_runtime>  (962) 
1.1302130222320557

>  <fragmenstein_outcome>  (962) 
too moved

>  <fragmenstein_mode>  (962) 
expansion

>  <fragmenstein_error>  (962) 


$$$$
C167-P76
     RDKit          3D

 22 22  0  0  0  0  0  0  0  0999 V2000
   13.3662   -3.9191   16.6664 C   0  0  0  0  0  0  0  0  0  0  0  0
   13.9547   -2.5608   16.4308 C   0  0  0  0  0  0  0  0  0  0  0  0
   14.6875   -1.9821   17.4396 C   0  0  0  0  0  0  0  0  0  0  0  0
   15.0535   -0.6926   17.1998 C   0  0  0  0  0  0  0  0  0  0  0  0
   15.5579    0.0867   18.1741 O   0  0  0  0  0  0  0  0  0  0  0  0
   14.8365   -0.0131   16.0852 N   0  0  0  0  0  0  0  0  0  0  0  0
   14.2176   -0.6721   15.1064 C   0  0  0  0  0  0  0  0  0  0  0  0
   14.0479    0.1063   13.8263 C   0  0  0  0  0  0  0  0  0  0  0  0
   15.0274    1.2930   13.6948 C   0  0  0  0  0  0  0  0  0  0  0  0
   14.8389    2.0570   12.4565 N   0  0  0  0  0  0  0  0  0  0  0  0
   13.7159   -1.9270   15.2482 N   0  0  0  0  0  0  0  0  0  0  0  0
   13.0650   -4.0442   17.7113 H   0  0  0  0  0  0  0  0  0  0  0  0
   14.1073   -4.6799   16.4189 H   0  0  0  0  0  0  0  0  0  0  0  0
   12.4725   -4.0536   16.0521 H   0  0  0  0  0  0  0  0  0  0  0  0
   14.8728   -2.4593   18.3910 H   0  0  0  0  0  0  0  0  0  0  0  0
   15.6831    0.9214   17.6870 H   0  0  0  0  0  0  0  0  0  0  0  0
   13.0152    0.4659   13.7726 H   0  0  0  0  0  0  0  0  0  0  0  0
   14.1951   -0.5817   12.9847 H   0  0  0  0  0  0  0  0  0  0  0  0
   14.9036    1.9892   14.5322 H   0  0  0  0  0  0  0  0  0  0  0  0
   16.0615    0.9310   13.7265 H   0  0  0  0  0  0  0  0  0  0  0  0
   14.9189    1.4307   11.6563 H   0  0  0  0  0  0  0  0  0  0  0  0
   13.8857    2.4207   12.4338 H   0  0  0  0  0  0  0  0  0  0  0  0
  1  2  1  0
  2  3  2  0
  3  4  1  0
  4  5  1  0
  4  6  2  0
  6  7  1  0
  7  8  1  0
  8  9  1  0
  9 10  1  0
  7 11  2  0
 11  2  1  0
  1 12  1  0
  1 13  1  0
  1 14  1  0
  3 15  1  0
  5 16  1  0
  8 17  1  0
  8 18  1  0
  9 19  1  0
  9 20  1  0
 10 21  1  0
 10 22  1  0
M  END
>  <Energy>  (963) 
-38.133385008510778

>  <compound_id>  (963) 
167

>  <target_id>  (963) 
1

>  <reference_id>  (963) 
76

>  <inspiration_ids>  (963) 
[191, 76]

>  <energy_score>  (963) 
-23.608451862869078

>  <distance_score>  (963) 
2.280789446518027

>  <path>  (963) 
/opt/xchem-fragalysis-2/maxwin/BulkDock/SCRATCH/505736/C167-P76/C167-P76.minimised.mol

>  <scratch_subdir>  (963) 
/opt/xchem-fragalysis-2/maxwin/BulkDock/SCRATCH/505736/C167-P76

>  <fragmenstein_runtime>  (963) 
1.073042631149292

>  <fragmenstein_outcome>  (963) 
too moved

>  <fragmenstein_mode>  (963) 
expansion

>  <fragmenstein_error>  (963) 


$$$$
C3007-P191
     RDKit          3D

 52 54  0  0  0  0  0  0  0  0999 V2000
   11.4129   -0.1232   14.3369 C   0  0  0  0  0  0  0  0  0  0  0  0
   12.0965   -1.1294   15.2040 C   0  0  0  0  0  0  0  0  0  0  0  0
   11.5015   -2.3494   15.4271 C   0  0  0  0  0  0  0  0  0  0  0  0
   12.2165   -3.2076   16.2175 C   0  0  0  0  0  0  0  0  0  0  0  0
   11.7443   -4.4262   16.5606 O   0  0  0  0  0  0  0  0  0  0  0  0
   13.4277   -2.9553   16.7095 N   0  0  0  0  0  0  0  0  0  0  0  0
   13.9631   -1.7811   16.3756 C   0  0  0  0  0  0  0  0  0  0  0  0
   15.4404   -1.6510   16.5573 C   0  0  0  0  0  0  0  0  0  0  0  0
   15.8864   -1.2145   17.9316 C   0  0  0  0  0  0  0  0  0  0  0  0
   17.3705   -1.0529   17.9707 N   0  0  0  0  0  0  0  0  0  0  0  0
   18.3237   -2.4447   18.1725 S   0  0  0  0  0  0  0  0  0  0  0  0
   17.4427   -3.5733   18.3646 O   0  0  0  0  0  0  0  0  0  0  0  0
   19.2995   -2.0745   19.1759 O   0  0  0  0  0  0  0  0  0  0  0  0
   19.1948   -2.6137   16.5604 C   0  0  0  0  0  0  0  0  0  0  0  0
   20.1677   -1.4537   16.3189 C   0  0  0  0  0  0  0  0  0  0  0  0
   20.0257   -1.1221   14.8388 C   0  0  0  0  0  0  0  0  0  0  0  0
   19.2832   -2.3192   14.2665 C   0  0  0  0  0  0  0  0  0  0  0  0
   18.4961   -2.0381   13.1097 N   0  0  0  0  0  0  0  0  0  0  0  0
   19.3885   -2.3683   11.9912 O   0  0  0  0  0  0  0  0  0  0  0  0
   20.4278   -3.1946   12.5327 C   0  0  0  0  0  0  0  0  0  0  0  0
   20.5467   -4.4919   11.7066 C   0  0  0  0  0  0  0  0  0  0  0  0
   21.6289   -5.4245   12.2565 C   0  0  0  0  0  0  0  0  0  0  0  0
   20.8383   -4.1762   10.2350 C   0  0  0  0  0  0  0  0  0  0  0  0
   20.1044   -3.4411   13.9359 N   0  0  0  0  0  0  0  0  0  0  0  0
   18.3833   -2.7321   15.3021 N   0  0  0  0  0  0  0  0  0  0  0  0
   13.3251   -0.8259   15.6738 N   0  0  0  0  0  0  0  0  0  0  0  0
   11.4932   -0.4147   13.2861 H   0  0  0  0  0  0  0  0  0  0  0  0
   11.8738    0.8630   14.4540 H   0  0  0  0  0  0  0  0  0  0  0  0
   10.3559   -0.0304   14.6066 H   0  0  0  0  0  0  0  0  0  0  0  0
   10.5388   -2.5986   15.0036 H   0  0  0  0  0  0  0  0  0  0  0  0
   10.9372   -4.6377   16.0563 H   0  0  0  0  0  0  0  0  0  0  0  0
   15.8779   -2.6251   16.3138 H   0  0  0  0  0  0  0  0  0  0  0  0
   15.8225   -0.9461   15.8078 H   0  0  0  0  0  0  0  0  0  0  0  0
   15.4483   -0.2375   18.1712 H   0  0  0  0  0  0  0  0  0  0  0  0
   15.5501   -1.8940   18.7221 H   0  0  0  0  0  0  0  0  0  0  0  0
   17.6780   -0.3630   18.6622 H   0  0  0  0  0  0  0  0  0  0  0  0
   19.7646   -3.5451   16.6817 H   0  0  0  0  0  0  0  0  0  0  0  0
   19.9546   -0.5658   16.9224 H   0  0  0  0  0  0  0  0  0  0  0  0
   21.1928   -1.7712   16.5417 H   0  0  0  0  0  0  0  0  0  0  0  0
   20.9955   -0.9331   14.3659 H   0  0  0  0  0  0  0  0  0  0  0  0
   19.4309   -0.2044   14.7356 H   0  0  0  0  0  0  0  0  0  0  0  0
   17.8083   -2.7795   13.0134 H   0  0  0  0  0  0  0  0  0  0  0  0
   21.3639   -2.6257   12.4690 H   0  0  0  0  0  0  0  0  0  0  0  0
   19.5840   -5.0204   11.7334 H   0  0  0  0  0  0  0  0  0  0  0  0
   22.6065   -4.9308   12.2706 H   0  0  0  0  0  0  0  0  0  0  0  0
   21.7147   -6.3255   11.6394 H   0  0  0  0  0  0  0  0  0  0  0  0
   21.3966   -5.7490   13.2757 H   0  0  0  0  0  0  0  0  0  0  0  0
   21.7769   -3.6218   10.1277 H   0  0  0  0  0  0  0  0  0  0  0  0
   20.9211   -5.0980    9.6493 H   0  0  0  0  0  0  0  0  0  0  0  0
   20.0367   -3.5771    9.7912 H   0  0  0  0  0  0  0  0  0  0  0  0
   19.4804   -4.2419   13.9772 H   0  0  0  0  0  0  0  0  0  0  0  0
   17.6946   -1.9833   15.3522 H   0  0  0  0  0  0  0  0  0  0  0  0
  1  2  1  0
  2  3  2  0
  3  4  1  0
  4  5  1  0
  4  6  2  0
  6  7  1  0
  7  8  1  0
  8  9  1  0
  9 10  1  0
 10 11  1  0
 11 12  2  0
 11 13  2  0
 11 14  1  0
 14 15  1  0
 15 16  1  0
 16 17  1  0
 17 18  1  0
 18 19  1  0
 19 20  1  0
 20 21  1  0
 21 22  1  0
 21 23  1  0
 20 24  1  0
 17 25  1  0
  7 26  2  0
 26  2  1  0
 25 14  1  0
 24 17  1  0
  1 27  1  0
  1 28  1  0
  1 29  1  0
  3 30  1  0
  5 31  1  0
  8 32  1  0
  8 33  1  0
  9 34  1  0
  9 35  1  0
 10 36  1  0
 14 37  1  0
 15 38  1  0
 15 39  1  0
 16 40  1  0
 16 41  1  0
 18 42  1  0
 20 43  1  0
 21 44  1  0
 22 45  1  0
 22 46  1  0
 22 47  1  0
 23 48  1  0
 23 49  1  0
 23 50  1  0
 24 51  1  0
 25 52  1  0
M  END
>  <Energy>  (964) 
-159.97310853067674

>  <compound_id>  (964) 
3007

>  <target_id>  (964) 
1

>  <reference_id>  (964) 
191

>  <inspiration_ids>  (964) 
[191, 80]

>  <energy_score>  (964) 
-206.1726390222315

>  <distance_score>  (964) 
0.7964908246334037

>  <path>  (964) 
/opt/xchem-fragalysis-2/maxwin/BulkDock/SCRATCH/505736/C3007-P191/C3007-P191.minimised.mol

>  <scratch_subdir>  (964) 
/opt/xchem-fragalysis-2/maxwin/BulkDock/SCRATCH/505736/C3007-P191

>  <fragmenstein_runtime>  (964) 
6.782307386398315

>  <fragmenstein_outcome>  (964) 
acceptable

>  <fragmenstein_mode>  (964) 
expansion

>  <fragmenstein_error>  (964) 


$$$$
C3007-P80
     RDKit          3D

 52 54  0  0  0  0  0  0  0  0999 V2000
   11.5746   -0.1411   14.4849 C   0  0  0  0  0  0  0  0  0  0  0  0
   12.1586   -1.1598   15.4090 C   0  0  0  0  0  0  0  0  0  0  0  0
   11.6447   -2.4365   15.4179 C   0  0  0  0  0  0  0  0  0  0  0  0
   12.2569   -3.3022   16.2817 C   0  0  0  0  0  0  0  0  0  0  0  0
   11.8156   -4.5713   16.4470 O   0  0  0  0  0  0  0  0  0  0  0  0
   13.2997   -2.9927   17.0530 N   0  0  0  0  0  0  0  0  0  0  0  0
   13.7351   -1.7318   16.9847 C   0  0  0  0  0  0  0  0  0  0  0  0
   14.9293   -1.3758   17.8236 C   0  0  0  0  0  0  0  0  0  0  0  0
   16.1522   -1.2478   16.9309 C   0  0  0  0  0  0  0  0  0  0  0  0
   17.3948   -1.1151   17.7103 N   0  0  0  0  0  0  0  0  0  0  0  0
   18.3266   -2.4591   18.0622 S   0  0  0  0  0  0  0  0  0  0  0  0
   17.4207   -3.5727   18.2395 O   0  0  0  0  0  0  0  0  0  0  0  0
   19.2100   -2.0385   19.1289 O   0  0  0  0  0  0  0  0  0  0  0  0
   19.3520   -2.7522   16.5441 C   0  0  0  0  0  0  0  0  0  0  0  0
   20.0285   -1.4691   16.0675 C   0  0  0  0  0  0  0  0  0  0  0  0
   19.2295   -1.0910   14.8376 C   0  0  0  0  0  0  0  0  0  0  0  0
   18.8200   -2.4431   14.2730 C   0  0  0  0  0  0  0  0  0  0  0  0
   17.6013   -2.4327   13.5279 N   0  0  0  0  0  0  0  0  0  0  0  0
   18.0363   -2.2146   12.1438 O   0  0  0  0  0  0  0  0  0  0  0  0
   19.4286   -2.5519   12.0995 C   0  0  0  0  0  0  0  0  0  0  0  0
   19.6743   -3.5931   10.9878 C   0  0  0  0  0  0  0  0  0  0  0  0
   21.1454   -4.0073   10.9043 C   0  0  0  0  0  0  0  0  0  0  0  0
   19.2124   -3.0572    9.6275 C   0  0  0  0  0  0  0  0  0  0  0  0
   19.8109   -3.0310   13.4242 N   0  0  0  0  0  0  0  0  0  0  0  0
   18.6601   -3.3575   15.3605 N   0  0  0  0  0  0  0  0  0  0  0  0
   13.1915   -0.7838   16.1964 N   0  0  0  0  0  0  0  0  0  0  0  0
   11.7796   -0.4114   13.4456 H   0  0  0  0  0  0  0  0  0  0  0  0
   12.0120    0.8454   14.6704 H   0  0  0  0  0  0  0  0  0  0  0  0
   10.4933   -0.0604   14.6346 H   0  0  0  0  0  0  0  0  0  0  0  0
   10.8185   -2.7256   14.7830 H   0  0  0  0  0  0  0  0  0  0  0  0
   10.9688   -4.7038   15.9830 H   0  0  0  0  0  0  0  0  0  0  0  0
   14.7388   -0.4339   18.3514 H   0  0  0  0  0  0  0  0  0  0  0  0
   15.0819   -2.1420   18.5923 H   0  0  0  0  0  0  0  0  0  0  0  0
   16.2205   -2.0948   16.2438 H   0  0  0  0  0  0  0  0  0  0  0  0
   16.0626   -0.3548   16.3002 H   0  0  0  0  0  0  0  0  0  0  0  0
   17.4490   -0.3798   18.4159 H   0  0  0  0  0  0  0  0  0  0  0  0
   20.1118   -3.4636   16.8904 H   0  0  0  0  0  0  0  0  0  0  0  0
   20.0493   -0.6623   16.8052 H   0  0  0  0  0  0  0  0  0  0  0  0
   21.0636   -1.6840   15.7741 H   0  0  0  0  0  0  0  0  0  0  0  0
   19.8132   -0.4757   14.1443 H   0  0  0  0  0  0  0  0  0  0  0  0
   18.3532   -0.5015   15.1315 H   0  0  0  0  0  0  0  0  0  0  0  0
   17.2435   -3.3862   13.4566 H   0  0  0  0  0  0  0  0  0  0  0  0
   19.9797   -1.6305   11.8735 H   0  0  0  0  0  0  0  0  0  0  0  0
   19.0713   -4.4869   11.1980 H   0  0  0  0  0  0  0  0  0  0  0  0
   21.7899   -3.1416   10.7176 H   0  0  0  0  0  0  0  0  0  0  0  0
   21.3007   -4.7251   10.0916 H   0  0  0  0  0  0  0  0  0  0  0  0
   21.4788   -4.4866   11.8301 H   0  0  0  0  0  0  0  0  0  0  0  0
   19.7556   -2.1456    9.3562 H   0  0  0  0  0  0  0  0  0  0  0  0
   19.3822   -3.7993    8.8400 H   0  0  0  0  0  0  0  0  0  0  0  0
   18.1424   -2.8258    9.6343 H   0  0  0  0  0  0  0  0  0  0  0  0
   19.6193   -4.0262   13.4787 H   0  0  0  0  0  0  0  0  0  0  0  0
   17.6696   -3.4076   15.5927 H   0  0  0  0  0  0  0  0  0  0  0  0
  1  2  1  0
  2  3  2  0
  3  4  1  0
  4  5  1  0
  4  6  2  0
  6  7  1  0
  7  8  1  0
  8  9  1  0
  9 10  1  0
 10 11  1  0
 11 12  2  0
 11 13  2  0
 11 14  1  0
 14 15  1  0
 15 16  1  0
 16 17  1  0
 17 18  1  0
 18 19  1  0
 19 20  1  0
 20 21  1  0
 21 22  1  0
 21 23  1  0
 20 24  1  0
 17 25  1  0
  7 26  2  0
 26  2  1  0
 25 14  1  0
 24 17  1  0
  1 27  1  0
  1 28  1  0
  1 29  1  0
  3 30  1  0
  5 31  1  0
  8 32  1  0
  8 33  1  0
  9 34  1  0
  9 35  1  0
 10 36  1  0
 14 37  1  0
 15 38  1  0
 15 39  1  0
 16 40  1  0
 16 41  1  0
 18 42  1  0
 20 43  1  0
 21 44  1  0
 22 45  1  0
 22 46  1  0
 22 47  1  0
 23 48  1  0
 23 49  1  0
 23 50  1  0
 24 51  1  0
 25 52  1  0
M  END
>  <Energy>  (965) 
-165.31664238440075

>  <compound_id>  (965) 
3007

>  <target_id>  (965) 
1

>  <reference_id>  (965) 
80

>  <inspiration_ids>  (965) 
[191, 80]

>  <energy_score>  (965) 
-211.5161728759541

>  <distance_score>  (965) 
0.7112712833180859

>  <path>  (965) 
/opt/xchem-fragalysis-2/maxwin/BulkDock/SCRATCH/505736/C3007-P80/C3007-P80.minimised.mol

>  <scratch_subdir>  (965) 
/opt/xchem-fragalysis-2/maxwin/BulkDock/SCRATCH/505736/C3007-P80

>  <fragmenstein_runtime>  (965) 
6.272520542144775

>  <fragmenstein_outcome>  (965) 
acceptable

>  <fragmenstein_mode>  (965) 
expansion

>  <fragmenstein_error>  (965) 


$$$$
C3009-P191
     RDKit          3D

 43 45  0  0  0  0  0  0  0  0999 V2000
   18.8746   -2.4528   13.1196 C   0  0  0  0  0  0  0  0  0  0  0  0
   19.1801   -2.1264   14.4882 N   0  0  0  0  0  0  0  0  0  0  0  0
   20.1985   -1.3285   14.9187 C   0  0  0  0  0  0  0  0  0  0  0  0
   20.1305   -1.3345   16.2906 C   0  0  0  0  0  0  0  0  0  0  0  0
   19.0268   -2.1648   16.5994 C   0  0  0  0  0  0  0  0  0  0  0  0
   18.4951   -2.4813   18.2419 S   0  0  0  0  0  0  0  0  0  0  0  0
   17.7348   -3.7114   18.2041 O   0  0  0  0  0  0  0  0  0  0  0  0
   19.6863   -2.3670   19.0569 O   0  0  0  0  0  0  0  0  0  0  0  0
   17.4515   -1.2461   18.7540 N   0  0  0  0  0  0  0  0  0  0  0  0
   16.3742   -0.7978   17.8501 C   0  0  0  0  0  0  0  0  0  0  0  0
   15.4387   -1.9194   17.4381 C   0  0  0  0  0  0  0  0  0  0  0  0
   14.2288   -1.4065   16.6650 C   0  0  0  0  0  0  0  0  0  0  0  0
   14.6042   -0.5152   15.5636 N   0  0  0  0  0  0  0  0  0  0  0  0
   13.4418   -0.5742   14.7115 C   0  0  0  0  0  0  0  0  0  0  0  0
   13.7696   -0.2458   13.3967 O   0  0  0  0  0  0  0  0  0  0  0  0
   13.0401   -1.9599   14.7487 N   0  0  0  0  0  0  0  0  0  0  0  0
   11.5853   -1.9954   14.6767 C   0  0  0  0  0  0  0  0  0  0  0  0
   11.1594   -3.3989   14.9909 C   0  0  0  0  0  0  0  0  0  0  0  0
   11.5043   -3.6808   16.3725 N   0  0  0  0  0  0  0  0  0  0  0  0
   12.8958   -3.5159   16.7160 C   0  0  0  0  0  0  0  0  0  0  0  0
   13.5757   -2.4833   15.9719 N   0  0  0  0  0  0  0  0  0  0  0  0
   18.4109   -2.6101   15.4824 N   0  0  0  0  0  0  0  0  0  0  0  0
   17.8610   -2.1078   12.9000 H   0  0  0  0  0  0  0  0  0  0  0  0
   18.9435   -3.5370   13.0001 H   0  0  0  0  0  0  0  0  0  0  0  0
   19.5879   -1.9590   12.4552 H   0  0  0  0  0  0  0  0  0  0  0  0
   20.8823   -0.8471   14.2330 H   0  0  0  0  0  0  0  0  0  0  0  0
   20.7867   -0.8263   16.9844 H   0  0  0  0  0  0  0  0  0  0  0  0
   17.1291   -1.4699   19.6963 H   0  0  0  0  0  0  0  0  0  0  0  0
   15.8088   -0.0269   18.3875 H   0  0  0  0  0  0  0  0  0  0  0  0
   16.8317   -0.3081   16.9841 H   0  0  0  0  0  0  0  0  0  0  0  0
   15.1069   -2.4712   18.3267 H   0  0  0  0  0  0  0  0  0  0  0  0
   15.9780   -2.6373   16.8106 H   0  0  0  0  0  0  0  0  0  0  0  0
   13.5438   -0.8767   17.3407 H   0  0  0  0  0  0  0  0  0  0  0  0
   15.3109   -1.0119   15.0265 H   0  0  0  0  0  0  0  0  0  0  0  0
   12.6958    0.1413   15.0814 H   0  0  0  0  0  0  0  0  0  0  0  0
   13.6660   -1.0954   12.9353 H   0  0  0  0  0  0  0  0  0  0  0  0
   11.1003   -1.2976   15.3748 H   0  0  0  0  0  0  0  0  0  0  0  0
   11.2692   -1.7244   13.6671 H   0  0  0  0  0  0  0  0  0  0  0  0
   10.0769   -3.4463   14.8904 H   0  0  0  0  0  0  0  0  0  0  0  0
   11.5907   -4.1204   14.2922 H   0  0  0  0  0  0  0  0  0  0  0  0
   11.2240   -4.6397   16.5825 H   0  0  0  0  0  0  0  0  0  0  0  0
   12.9479   -3.3219   17.7931 H   0  0  0  0  0  0  0  0  0  0  0  0
   13.4238   -4.4622   16.5784 H   0  0  0  0  0  0  0  0  0  0  0  0
  1  2  1  0
  2  3  1  0
  3  4  2  0
  4  5  1  0
  5  6  1  0
  6  7  2  0
  6  8  2  0
  6  9  1  0
  9 10  1  0
 10 11  1  0
 11 12  1  0
 12 13  1  0
 13 14  1  0
 14 15  1  0
 14 16  1  0
 16 17  1  0
 17 18  1  0
 18 19  1  0
 19 20  1  0
 20 21  1  0
  5 22  2  0
 22  2  1  0
 21 12  1  0
 21 16  1  0
  1 23  1  0
  1 24  1  0
  1 25  1  0
  3 26  1  0
  4 27  1  0
  9 28  1  0
 10 29  1  0
 10 30  1  0
 11 31  1  0
 11 32  1  0
 12 33  1  0
 13 34  1  0
 14 35  1  0
 15 36  1  0
 17 37  1  0
 17 38  1  0
 18 39  1  0
 18 40  1  0
 19 41  1  0
 20 42  1  0
 20 43  1  0
M  END
>  <Energy>  (966) 
-33.569987355131524

>  <compound_id>  (966) 
3009

>  <target_id>  (966) 
1

>  <reference_id>  (966) 
191

>  <inspiration_ids>  (966) 
[191, 97]

>  <energy_score>  (966) 
-69.86825147920177

>  <distance_score>  (966) 
1.4143886428821173

>  <path>  (966) 
/opt/xchem-fragalysis-2/maxwin/BulkDock/SCRATCH/505736/C3009-P191/C3009-P191.minimised.mol

>  <scratch_subdir>  (966) 
/opt/xchem-fragalysis-2/maxwin/BulkDock/SCRATCH/505736/C3009-P191

>  <fragmenstein_runtime>  (966) 
2.2894861698150635

>  <fragmenstein_outcome>  (966) 
too moved

>  <fragmenstein_mode>  (966) 
expansion

>  <fragmenstein_error>  (966) 


$$$$
C3009-P97
     RDKit          3D

 43 45  0  0  0  0  0  0  0  0999 V2000
   18.7415   -2.3632   13.2016 C   0  0  0  0  0  0  0  0  0  0  0  0
   19.1007   -2.0890   14.5683 N   0  0  0  0  0  0  0  0  0  0  0  0
   20.1330   -1.3062   14.9946 C   0  0  0  0  0  0  0  0  0  0  0  0
   20.0991   -1.3499   16.3680 C   0  0  0  0  0  0  0  0  0  0  0  0
   19.0034   -2.1890   16.6810 C   0  0  0  0  0  0  0  0  0  0  0  0
   18.4937   -2.5526   18.3195 S   0  0  0  0  0  0  0  0  0  0  0  0
   17.7817   -3.8111   18.2658 O   0  0  0  0  0  0  0  0  0  0  0  0
   19.6856   -2.4071   19.1289 O   0  0  0  0  0  0  0  0  0  0  0  0
   17.4023   -1.3764   18.8657 N   0  0  0  0  0  0  0  0  0  0  0  0
   16.3375   -0.9182   17.9541 C   0  0  0  0  0  0  0  0  0  0  0  0
   15.4129   -2.0343   17.4917 C   0  0  0  0  0  0  0  0  0  0  0  0
   14.2568   -1.4866   16.6621 C   0  0  0  0  0  0  0  0  0  0  0  0
   14.7343   -0.5819   15.6096 N   0  0  0  0  0  0  0  0  0  0  0  0
   13.6163   -0.5318   14.7029 C   0  0  0  0  0  0  0  0  0  0  0  0
   14.0420   -0.2853   13.3992 O   0  0  0  0  0  0  0  0  0  0  0  0
   13.0598   -1.8599   14.7275 N   0  0  0  0  0  0  0  0  0  0  0  0
   11.6124   -1.7116   14.7891 C   0  0  0  0  0  0  0  0  0  0  0  0
   11.0582   -3.1012   14.9177 C   0  0  0  0  0  0  0  0  0  0  0  0
   11.4638   -3.6474   16.2026 N   0  0  0  0  0  0  0  0  0  0  0  0
   12.8844   -3.5996   16.4956 C   0  0  0  0  0  0  0  0  0  0  0  0
   13.5970   -2.4986   15.8892 N   0  0  0  0  0  0  0  0  0  0  0  0
   18.3690   -2.6107   15.5682 N   0  0  0  0  0  0  0  0  0  0  0  0
   19.4354   -1.8523   12.5295 H   0  0  0  0  0  0  0  0  0  0  0  0
   17.7243   -2.0008   13.0321 H   0  0  0  0  0  0  0  0  0  0  0  0
   18.7945   -3.4429   13.0404 H   0  0  0  0  0  0  0  0  0  0  0  0
   20.7952   -0.8011   14.3051 H   0  0  0  0  0  0  0  0  0  0  0  0
   20.7688   -0.8565   17.0593 H   0  0  0  0  0  0  0  0  0  0  0  0
   17.0579   -1.6606   19.7835 H   0  0  0  0  0  0  0  0  0  0  0  0
   15.7547   -0.1665   18.5006 H   0  0  0  0  0  0  0  0  0  0  0  0
   16.8107   -0.3976   17.1152 H   0  0  0  0  0  0  0  0  0  0  0  0
   15.0262   -2.5829   18.3595 H   0  0  0  0  0  0  0  0  0  0  0  0
   15.9695   -2.7600   16.8899 H   0  0  0  0  0  0  0  0  0  0  0  0
   13.5582   -0.9425   17.3095 H   0  0  0  0  0  0  0  0  0  0  0  0
   15.4332   -1.1097   15.0897 H   0  0  0  0  0  0  0  0  0  0  0  0
   12.9394    0.2741   15.0147 H   0  0  0  0  0  0  0  0  0  0  0  0
   13.9670   -1.1712   13.0050 H   0  0  0  0  0  0  0  0  0  0  0  0
   11.2762   -1.0872   15.6298 H   0  0  0  0  0  0  0  0  0  0  0  0
   11.2736   -1.2305   13.8716 H   0  0  0  0  0  0  0  0  0  0  0  0
    9.9716   -3.0383   14.8867 H   0  0  0  0  0  0  0  0  0  0  0  0
   11.3745   -3.7295   14.0810 H   0  0  0  0  0  0  0  0  0  0  0  0
   11.1352   -4.6129   16.2738 H   0  0  0  0  0  0  0  0  0  0  0  0
   13.0036   -3.5921   17.5844 H   0  0  0  0  0  0  0  0  0  0  0  0
   13.3532   -4.5313   16.1706 H   0  0  0  0  0  0  0  0  0  0  0  0
  1  2  1  0
  2  3  1  0
  3  4  2  0
  4  5  1  0
  5  6  1  0
  6  7  2  0
  6  8  2  0
  6  9  1  0
  9 10  1  0
 10 11  1  0
 11 12  1  0
 12 13  1  0
 13 14  1  0
 14 15  1  0
 14 16  1  0
 16 17  1  0
 17 18  1  0
 18 19  1  0
 19 20  1  0
 20 21  1  0
  5 22  2  0
 22  2  1  0
 21 12  1  0
 21 16  1  0
  1 23  1  0
  1 24  1  0
  1 25  1  0
  3 26  1  0
  4 27  1  0
  9 28  1  0
 10 29  1  0
 10 30  1  0
 11 31  1  0
 11 32  1  0
 12 33  1  0
 13 34  1  0
 14 35  1  0
 15 36  1  0
 17 37  1  0
 17 38  1  0
 18 39  1  0
 18 40  1  0
 19 41  1  0
 20 42  1  0
 20 43  1  0
M  END
>  <Energy>  (967) 
-33.915695691317644

>  <compound_id>  (967) 
3009

>  <target_id>  (967) 
1

>  <reference_id>  (967) 
97

>  <inspiration_ids>  (967) 
[191, 97]

>  <energy_score>  (967) 
-70.21395981538802

>  <distance_score>  (967) 
1.4558452456028534

>  <path>  (967) 
/opt/xchem-fragalysis-2/maxwin/BulkDock/SCRATCH/505736/C3009-P97/C3009-P97.minimised.mol

>  <scratch_subdir>  (967) 
/opt/xchem-fragalysis-2/maxwin/BulkDock/SCRATCH/505736/C3009-P97

>  <fragmenstein_runtime>  (967) 
2.2134180068969727

>  <fragmenstein_outcome>  (967) 
too moved

>  <fragmenstein_mode>  (967) 
expansion

>  <fragmenstein_error>  (967) 


$$$$
C3011-P191
     RDKit          3D

 57 60  0  0  0  0  0  0  0  0999 V2000
    7.4868   -5.6084   15.9792 C   0  0  0  0  0  0  0  0  0  0  0  0
    8.2045   -3.8592   15.5208 N   0  0  0  0  0  0  0  0  0  0  0  0
    9.6481   -3.4282   15.0244 C   0  0  0  0  0  0  0  0  0  0  0  0
   10.6175   -4.1019   14.7424 O   0  0  0  0  0  0  0  0  0  0  0  0
    9.6928   -1.8856   15.0494 C   0  0  0  0  0  0  0  0  0  0  0  0
   11.0851   -1.2940   15.1003 C   0  0  0  0  0  0  0  0  0  0  0  0
   11.4672   -0.2899   14.2111 C   0  0  0  0  0  0  0  0  0  0  0  0
   12.6150    0.4668   14.4612 C   0  0  0  0  0  0  0  0  0  0  0  0
   13.3396    0.2863   15.6476 C   0  0  0  0  0  0  0  0  0  0  0  0
   14.3198    1.3029   16.0838 C   0  0  0  0  0  0  0  0  0  0  0  0
   15.6218    0.9517   16.2436 C   0  0  0  0  0  0  0  0  0  0  0  0
   16.2983   -0.3766   16.0496 C   0  0  0  0  0  0  0  0  0  0  0  0
   16.9415   -0.7799   17.3151 N   0  0  0  0  0  0  0  0  0  0  0  0
   17.3686   -2.4191   17.4351 S   0  0  0  0  0  0  0  0  0  0  0  0
   18.2425   -2.5452   18.5797 O   0  0  0  0  0  0  0  0  0  0  0  0
   16.1786   -3.2202   17.2595 O   0  0  0  0  0  0  0  0  0  0  0  0
   18.3812   -2.8304   16.0665 C   0  0  0  0  0  0  0  0  0  0  0  0
   18.5729   -4.1442   15.5872 C   0  0  0  0  0  0  0  0  0  0  0  0
   19.3740   -3.9966   14.4795 C   0  0  0  0  0  0  0  0  0  0  0  0
   19.6289   -2.6612   14.3664 N   0  0  0  0  0  0  0  0  0  0  0  0
   20.4275   -2.0161   13.3524 C   0  0  0  0  0  0  0  0  0  0  0  0
   19.0207   -1.9142   15.3098 N   0  0  0  0  0  0  0  0  0  0  0  0
   16.5418    2.0805   16.5840 C   0  0  0  0  0  0  0  0  0  0  0  0
   16.2283    3.3201   16.7782 N   0  0  0  0  0  0  0  0  0  0  0  0
   14.9068    3.6166   16.6539 C   0  0  0  0  0  0  0  0  0  0  0  0
   14.2829    4.8300   16.7876 C   0  0  0  0  0  0  0  0  0  0  0  0
   14.9336    5.9639   17.0861 O   0  0  0  0  0  0  0  0  0  0  0  0
   12.9193    4.6717   16.5706 C   0  0  0  0  0  0  0  0  0  0  0  0
   12.6960    3.3255   16.3206 C   0  0  0  0  0  0  0  0  0  0  0  0
   11.3557    2.7177   16.1026 C   0  0  0  0  0  0  0  0  0  0  0  0
   13.9365    2.6589   16.3264 N   0  0  0  0  0  0  0  0  0  0  0  0
   13.0502   -0.8213   16.4465 C   0  0  0  0  0  0  0  0  0  0  0  0
   11.9580   -1.6304   16.1437 C   0  0  0  0  0  0  0  0  0  0  0  0
    7.1865   -5.8185   17.0292 H   0  0  0  0  0  0  0  0  0  0  0  0
    6.4605   -5.8386   15.8180 H   0  0  0  0  0  0  0  0  0  0  0  0
    7.9399   -6.3864   15.3555 H   0  0  0  0  0  0  0  0  0  0  0  0
    7.6082   -3.0384   15.5821 H   0  0  0  0  0  0  0  0  0  0  0  0
    9.0548   -1.4496   14.2923 H   0  0  0  0  0  0  0  0  0  0  0  0
    9.2097   -1.5248   15.9653 H   0  0  0  0  0  0  0  0  0  0  0  0
   10.8386   -0.0409   13.3584 H   0  0  0  0  0  0  0  0  0  0  0  0
   12.8625    1.2813   13.7830 H   0  0  0  0  0  0  0  0  0  0  0  0
   17.0556   -0.2544   15.2691 H   0  0  0  0  0  0  0  0  0  0  0  0
   15.6035   -1.1461   15.7079 H   0  0  0  0  0  0  0  0  0  0  0  0
   17.7745   -0.2416   17.5558 H   0  0  0  0  0  0  0  0  0  0  0  0
   18.1683   -5.0638   15.9902 H   0  0  0  0  0  0  0  0  0  0  0  0
   19.7786   -4.7206   13.7840 H   0  0  0  0  0  0  0  0  0  0  0  0
   20.8364   -2.7706   12.6760 H   0  0  0  0  0  0  0  0  0  0  0  0
   21.2401   -1.4773   13.8459 H   0  0  0  0  0  0  0  0  0  0  0  0
   19.7875   -1.3248   12.7985 H   0  0  0  0  0  0  0  0  0  0  0  0
   17.6098    1.8165   16.6621 H   0  0  0  0  0  0  0  0  0  0  0  0
   15.8795    5.7412   17.1883 H   0  0  0  0  0  0  0  0  0  0  0  0
   12.1649    5.4459   16.6119 H   0  0  0  0  0  0  0  0  0  0  0  0
   10.5736    3.3712   16.5065 H   0  0  0  0  0  0  0  0  0  0  0  0
   11.1441    2.6175   15.0351 H   0  0  0  0  0  0  0  0  0  0  0  0
   11.2441    1.7581   16.6069 H   0  0  0  0  0  0  0  0  0  0  0  0
   13.6330   -1.0409   17.3396 H   0  0  0  0  0  0  0  0  0  0  0  0
   11.7597   -2.4889   16.7796 H   0  0  0  0  0  0  0  0  0  0  0  0
  1  2  1  0
  2  3  1  0
  3  4  2  0
  3  5  1  0
  5  6  1  0
  6  7  2  0
  7  8  1  0
  8  9  2  0
  9 10  1  0
 10 11  2  0
 11 12  1  0
 12 13  1  0
 13 14  1  0
 14 15  2  0
 14 16  2  0
 14 17  1  0
 17 18  1  0
 18 19  2  0
 19 20  1  0
 20 21  1  0
 20 22  1  0
 11 23  1  0
 23 24  2  0
 24 25  1  0
 25 26  2  0
 26 27  1  0
 26 28  1  0
 28 29  2  0
 29 30  1  0
 29 31  1  0
  9 32  1  0
 32 33  2  0
 33  6  1  0
 31 10  1  0
 22 17  2  0
 31 25  1  0
  1 34  1  0
  1 35  1  0
  1 36  1  0
  2 37  1  0
  5 38  1  0
  5 39  1  0
  7 40  1  0
  8 41  1  0
 12 42  1  0
 12 43  1  0
 13 44  1  0
 18 45  1  0
 19 46  1  0
 21 47  1  0
 21 48  1  0
 21 49  1  0
 23 50  1  0
 27 51  1  0
 28 52  1  0
 30 53  1  0
 30 54  1  0
 30 55  1  0
 32 56  1  0
 33 57  1  0
M  END
>  <Energy>  (968) 
161.88317161357443

>  <compound_id>  (968) 
3011

>  <target_id>  (968) 
1

>  <reference_id>  (968) 
191

>  <inspiration_ids>  (968) 
[191, 103]

>  <energy_score>  (968) 
35.93795204990022

>  <distance_score>  (968) 
1.9075062537943592

>  <path>  (968) 
/opt/xchem-fragalysis-2/maxwin/BulkDock/SCRATCH/505736/C3011-P191/C3011-P191.minimised.mol

>  <scratch_subdir>  (968) 
/opt/xchem-fragalysis-2/maxwin/BulkDock/SCRATCH/505736/C3011-P191

>  <fragmenstein_runtime>  (968) 
16.850202560424805

>  <fragmenstein_outcome>  (968) 
too moved

>  <fragmenstein_mode>  (968) 
expansion

>  <fragmenstein_error>  (968) 


$$$$
C3011-P103
     RDKit          3D

 57 60  0  0  0  0  0  0  0  0999 V2000
    7.2001   -5.5013   16.0544 C   0  0  0  0  0  0  0  0  0  0  0  0
    7.6391   -3.6535   15.5755 N   0  0  0  0  0  0  0  0  0  0  0  0
    8.9479   -3.0303   15.0496 C   0  0  0  0  0  0  0  0  0  0  0  0
   10.0227   -3.5372   14.8256 O   0  0  0  0  0  0  0  0  0  0  0  0
    8.7353   -1.4939   14.9317 C   0  0  0  0  0  0  0  0  0  0  0  0
   10.0263   -0.6715   15.1253 C   0  0  0  0  0  0  0  0  0  0  0  0
    9.9609    0.5655   15.7662 C   0  0  0  0  0  0  0  0  0  0  0  0
   11.1298    1.2997   16.0112 C   0  0  0  0  0  0  0  0  0  0  0  0
   12.4005    0.8258   15.6392 C   0  0  0  0  0  0  0  0  0  0  0  0
   13.5968    1.6180   16.0010 C   0  0  0  0  0  0  0  0  0  0  0  0
   14.5448    1.1096   16.8325 C   0  0  0  0  0  0  0  0  0  0  0  0
   14.7562   -0.2721   17.3916 C   0  0  0  0  0  0  0  0  0  0  0  0
   15.9838   -0.7675   16.7699 N   0  0  0  0  0  0  0  0  0  0  0  0
   16.8375   -1.9983   17.5397 S   0  0  0  0  0  0  0  0  0  0  0  0
   17.5583   -1.4378   18.6604 O   0  0  0  0  0  0  0  0  0  0  0  0
   15.9669   -3.1454   17.6663 O   0  0  0  0  0  0  0  0  0  0  0  0
   18.0697   -2.4985   16.4031 C   0  0  0  0  0  0  0  0  0  0  0  0
   19.0533   -3.4777   16.6505 C   0  0  0  0  0  0  0  0  0  0  0  0
   19.7796   -3.5409   15.4833 C   0  0  0  0  0  0  0  0  0  0  0  0
   19.2197   -2.6310   14.6342 N   0  0  0  0  0  0  0  0  0  0  0  0
   19.6408   -2.3267   13.2880 C   0  0  0  0  0  0  0  0  0  0  0  0
   18.1586   -1.9878   15.1569 N   0  0  0  0  0  0  0  0  0  0  0  0
   15.5639    2.1041   17.3111 C   0  0  0  0  0  0  0  0  0  0  0  0
   15.6385    3.3601   17.0038 N   0  0  0  0  0  0  0  0  0  0  0  0
   14.7144    3.7972   16.1058 C   0  0  0  0  0  0  0  0  0  0  0  0
   14.5332    5.0506   15.5775 C   0  0  0  0  0  0  0  0  0  0  0  0
   15.2856    6.1071   15.9197 O   0  0  0  0  0  0  0  0  0  0  0  0
   13.5076    5.0098   14.6338 C   0  0  0  0  0  0  0  0  0  0  0  0
   13.0680    3.6963   14.5685 C   0  0  0  0  0  0  0  0  0  0  0  0
   12.1069    3.1407   13.5765 C   0  0  0  0  0  0  0  0  0  0  0  0
   13.7342    2.9629   15.5618 N   0  0  0  0  0  0  0  0  0  0  0  0
   12.4688   -0.3676   14.9344 C   0  0  0  0  0  0  0  0  0  0  0  0
   11.2973   -1.0879   14.6717 C   0  0  0  0  0  0  0  0  0  0  0  0
    6.1664   -5.7980   16.0671 H   0  0  0  0  0  0  0  0  0  0  0  0
    7.6398   -6.2878   15.4569 H   0  0  0  0  0  0  0  0  0  0  0  0
    7.0933   -5.7540   17.1313 H   0  0  0  0  0  0  0  0  0  0  0  0
    6.9091   -2.9559   15.5627 H   0  0  0  0  0  0  0  0  0  0  0  0
    8.1409   -1.2089   14.0662 H   0  0  0  0  0  0  0  0  0  0  0  0
    8.1006   -1.2163   15.7819 H   0  0  0  0  0  0  0  0  0  0  0  0
    9.0100    0.9697   16.1088 H   0  0  0  0  0  0  0  0  0  0  0  0
   11.0397    2.2528   16.5357 H   0  0  0  0  0  0  0  0  0  0  0  0
   13.9297   -0.9499   17.1681 H   0  0  0  0  0  0  0  0  0  0  0  0
   14.8605   -0.2169   18.4807 H   0  0  0  0  0  0  0  0  0  0  0  0
   15.9324   -0.9592   15.7664 H   0  0  0  0  0  0  0  0  0  0  0  0
   19.2055   -4.0506   17.5547 H   0  0  0  0  0  0  0  0  0  0  0  0
   20.6321   -4.1422   15.1984 H   0  0  0  0  0  0  0  0  0  0  0  0
   19.8927   -1.2645   13.2377 H   0  0  0  0  0  0  0  0  0  0  0  0
   18.8168   -2.5600   12.6089 H   0  0  0  0  0  0  0  0  0  0  0  0
   20.5158   -2.9303   13.0351 H   0  0  0  0  0  0  0  0  0  0  0  0
   16.3123    1.7096   18.0208 H   0  0  0  0  0  0  0  0  0  0  0  0
   15.9285    5.8012   16.5891 H   0  0  0  0  0  0  0  0  0  0  0  0
   13.1672    5.8289   14.0148 H   0  0  0  0  0  0  0  0  0  0  0  0
   12.4057    2.1496   13.2256 H   0  0  0  0  0  0  0  0  0  0  0  0
   12.0692    3.7835   12.6892 H   0  0  0  0  0  0  0  0  0  0  0  0
   11.0936    3.1051   13.9839 H   0  0  0  0  0  0  0  0  0  0  0  0
   13.4163   -0.7554   14.5705 H   0  0  0  0  0  0  0  0  0  0  0  0
   11.4091   -2.0003   14.0889 H   0  0  0  0  0  0  0  0  0  0  0  0
  1  2  1  0
  2  3  1  0
  3  4  2  0
  3  5  1  0
  5  6  1  0
  6  7  2  0
  7  8  1  0
  8  9  2  0
  9 10  1  0
 10 11  2  0
 11 12  1  0
 12 13  1  0
 13 14  1  0
 14 15  2  0
 14 16  2  0
 14 17  1  0
 17 18  1  0
 18 19  2  0
 19 20  1  0
 20 21  1  0
 20 22  1  0
 11 23  1  0
 23 24  2  0
 24 25  1  0
 25 26  2  0
 26 27  1  0
 26 28  1  0
 28 29  2  0
 29 30  1  0
 29 31  1  0
  9 32  1  0
 32 33  2  0
 33  6  1  0
 31 10  1  0
 22 17  2  0
 31 25  1  0
  1 34  1  0
  1 35  1  0
  1 36  1  0
  2 37  1  0
  5 38  1  0
  5 39  1  0
  7 40  1  0
  8 41  1  0
 12 42  1  0
 12 43  1  0
 13 44  1  0
 18 45  1  0
 19 46  1  0
 21 47  1  0
 21 48  1  0
 21 49  1  0
 23 50  1  0
 27 51  1  0
 28 52  1  0
 30 53  1  0
 30 54  1  0
 30 55  1  0
 32 56  1  0
 33 57  1  0
M  END
>  <Energy>  (969) 
160.98153201733135

>  <compound_id>  (969) 
3011

>  <target_id>  (969) 
1

>  <reference_id>  (969) 
103

>  <inspiration_ids>  (969) 
[191, 103]

>  <energy_score>  (969) 
35.036312453657956

>  <distance_score>  (969) 
2.5157951275272676

>  <path>  (969) 
/opt/xchem-fragalysis-2/maxwin/BulkDock/SCRATCH/505736/C3011-P103/C3011-P103.minimised.mol

>  <scratch_subdir>  (969) 
/opt/xchem-fragalysis-2/maxwin/BulkDock/SCRATCH/505736/C3011-P103

>  <fragmenstein_runtime>  (969) 
19.5173819065094

>  <fragmenstein_outcome>  (969) 
too moved

>  <fragmenstein_mode>  (969) 
expansion

>  <fragmenstein_error>  (969) 


$$$$
C3012-P191
     RDKit          3D

 55 58  0  0  0  0  0  0  0  0999 V2000
   14.7465   -1.6535   21.8496 C   0  0  0  0  0  0  0  0  0  0  0  0
   14.6454   -1.3634   20.4018 C   0  0  0  0  0  0  0  0  0  0  0  0
   14.9217   -0.1311   19.8229 C   0  0  0  0  0  0  0  0  0  0  0  0
   14.6576   -0.2370   18.4635 C   0  0  0  0  0  0  0  0  0  0  0  0
   14.7115    0.7343   17.5388 O   0  0  0  0  0  0  0  0  0  0  0  0
   14.2639   -1.5203   18.1889 C   0  0  0  0  0  0  0  0  0  0  0  0
   13.8216   -2.0444   17.0112 N   0  0  0  0  0  0  0  0  0  0  0  0
   13.7109   -3.3320   17.0192 C   0  0  0  0  0  0  0  0  0  0  0  0
   14.1018   -4.2450   18.1387 C   0  0  0  0  0  0  0  0  0  0  0  0
   15.4066   -4.9672   17.8180 C   0  0  0  0  0  0  0  0  0  0  0  0
   16.5168   -4.0648   18.2171 N   0  0  0  0  0  0  0  0  0  0  0  0
   18.0851   -4.5508   17.8356 S   0  0  0  0  0  0  0  0  0  0  0  0
   18.9927   -3.7878   18.6637 O   0  0  0  0  0  0  0  0  0  0  0  0
   18.1206   -5.9917   17.7478 O   0  0  0  0  0  0  0  0  0  0  0  0
   18.4430   -3.9864   16.2144 C   0  0  0  0  0  0  0  0  0  0  0  0
   19.6261   -4.3057   15.5145 C   0  0  0  0  0  0  0  0  0  0  0  0
   19.5546   -3.5730   14.3537 C   0  0  0  0  0  0  0  0  0  0  0  0
   18.3961   -2.8583   14.4266 N   0  0  0  0  0  0  0  0  0  0  0  0
   17.9333   -1.8740   13.4779 C   0  0  0  0  0  0  0  0  0  0  0  0
   17.6439   -3.1539   15.5107 N   0  0  0  0  0  0  0  0  0  0  0  0
   13.9649   -3.6708   19.3631 C   0  0  0  0  0  0  0  0  0  0  0  0
   13.6627   -4.6246   20.4924 C   0  0  0  0  0  0  0  0  0  0  0  0
   14.4801   -4.7532   21.6070 C   0  0  0  0  0  0  0  0  0  0  0  0
   14.0819   -5.5477   22.6820 C   0  0  0  0  0  0  0  0  0  0  0  0
   12.9481   -6.3647   22.5788 C   0  0  0  0  0  0  0  0  0  0  0  0
   12.1857   -6.5022   21.3472 C   0  0  0  0  0  0  0  0  0  0  0  0
   11.0940   -8.0115   21.3658 N   0  0  0  0  0  0  0  0  0  0  0  0
   10.1301   -8.8500   20.1027 S   0  0  0  0  0  0  0  0  0  0  0  0
    8.6480  -10.0454   18.8268 C   0  0  0  0  0  0  0  0  0  0  0  0
   11.0257   -9.6986   19.4130 O   0  0  0  0  0  0  0  0  0  0  0  0
    9.4398   -7.6958   19.7934 O   0  0  0  0  0  0  0  0  0  0  0  0
   12.5150   -5.5053   20.4133 C   0  0  0  0  0  0  0  0  0  0  0  0
   14.2827   -2.2692   19.3988 N   0  0  0  0  0  0  0  0  0  0  0  0
   14.6639   -0.7261   22.4288 H   0  0  0  0  0  0  0  0  0  0  0  0
   13.9514   -2.3044   22.2079 H   0  0  0  0  0  0  0  0  0  0  0  0
   15.7221   -2.0865   22.0873 H   0  0  0  0  0  0  0  0  0  0  0  0
   15.2391    0.7566   20.3548 H   0  0  0  0  0  0  0  0  0  0  0  0
   14.4458    0.3431   16.6847 H   0  0  0  0  0  0  0  0  0  0  0  0
   13.2925   -3.8306   16.1348 H   0  0  0  0  0  0  0  0  0  0  0  0
   15.4582   -5.9110   18.3698 H   0  0  0  0  0  0  0  0  0  0  0  0
   15.4750   -5.1801   16.7483 H   0  0  0  0  0  0  0  0  0  0  0  0
   16.4126   -3.1134   17.8465 H   0  0  0  0  0  0  0  0  0  0  0  0
   20.4293   -4.9557   15.8347 H   0  0  0  0  0  0  0  0  0  0  0  0
   20.2389   -3.4782   13.5210 H   0  0  0  0  0  0  0  0  0  0  0  0
   17.8019   -0.9251   14.0038 H   0  0  0  0  0  0  0  0  0  0  0  0
   16.9829   -2.2184   13.0623 H   0  0  0  0  0  0  0  0  0  0  0  0
   18.6712   -1.7603   12.6801 H   0  0  0  0  0  0  0  0  0  0  0  0
   15.4178   -4.2102   21.6765 H   0  0  0  0  0  0  0  0  0  0  0  0
   14.6785   -5.5614   23.5920 H   0  0  0  0  0  0  0  0  0  0  0  0
   12.6968   -6.9967   23.4311 H   0  0  0  0  0  0  0  0  0  0  0  0
   11.6842   -8.7109   21.8165 H   0  0  0  0  0  0  0  0  0  0  0  0
    8.7439   -9.8577   17.7827 H   0  0  0  0  0  0  0  0  0  0  0  0
    9.1309  -11.0176   18.5321 H   0  0  0  0  0  0  0  0  0  0  0  0
    7.7529  -10.4048   19.3241 H   0  0  0  0  0  0  0  0  0  0  0  0
   11.9097   -5.3663   19.5563 H   0  0  0  0  0  0  0  0  0  0  0  0
  1  2  1  0
  2  3  2  0
  3  4  1  0
  4  5  1  0
  4  6  2  0
  6  7  1  0
  7  8  2  0
  8  9  1  0
  9 10  1  0
 10 11  1  0
 11 12  1  0
 12 13  2  0
 12 14  2  0
 12 15  1  0
 15 16  1  0
 16 17  2  0
 17 18  1  0
 18 19  1  0
 18 20  1  0
  9 21  2  0
 21 22  1  0
 22 23  2  0
 23 24  1  0
 24 25  2  0
 25 26  1  0
 26 27  1  0
 27 28  1  0
 28 29  1  0
 28 30  2  0
 28 31  2  0
 26 32  2  0
 21 33  1  0
 33  2  1  0
 33  6  1  0
 20 15  2  0
 32 22  1  0
  1 34  1  0
  1 35  1  0
  1 36  1  0
  3 37  1  0
  5 38  1  0
  8 39  1  0
 10 40  1  0
 10 41  1  0
 11 42  1  0
 16 43  1  0
 17 44  1  0
 19 45  1  0
 19 46  1  0
 19 47  1  0
 23 48  1  0
 24 49  1  0
 25 50  1  0
 27 51  1  0
 29 52  1  0
 29 53  1  0
 29 54  1  0
 32 55  1  0
M  END
>  <Energy>  (970) 
332.4496641698878

>  <compound_id>  (970) 
3012

>  <target_id>  (970) 
1

>  <reference_id>  (970) 
191

>  <inspiration_ids>  (970) 
[191, 106]

>  <energy_score>  (970) 
245.02944952775184

>  <distance_score>  (970) 
3.168524805505367

>  <path>  (970) 
/opt/xchem-fragalysis-2/maxwin/BulkDock/SCRATCH/505736/C3012-P191/C3012-P191.minimised.mol

>  <scratch_subdir>  (970) 
/opt/xchem-fragalysis-2/maxwin/BulkDock/SCRATCH/505736/C3012-P191

>  <fragmenstein_runtime>  (970) 
9.37092137336731

>  <fragmenstein_outcome>  (970) 
too moved

>  <fragmenstein_mode>  (970) 
expansion

>  <fragmenstein_error>  (970) 


$$$$
C3012-P106
     RDKit          3D

 55 58  0  0  0  0  0  0  0  0999 V2000
   14.8530   -7.6291   22.2799 C   0  0  0  0  0  0  0  0  0  0  0  0
   14.5938   -6.5411   21.3125 C   0  0  0  0  0  0  0  0  0  0  0  0
   13.8594   -5.3841   21.5514 C   0  0  0  0  0  0  0  0  0  0  0  0
   14.0742   -4.5145   20.4803 C   0  0  0  0  0  0  0  0  0  0  0  0
   13.6484   -3.2442   20.3342 O   0  0  0  0  0  0  0  0  0  0  0  0
   14.8853   -5.1520   19.5744 C   0  0  0  0  0  0  0  0  0  0  0  0
   15.3720   -4.6864   18.3998 N   0  0  0  0  0  0  0  0  0  0  0  0
   16.3694   -5.3631   17.9534 C   0  0  0  0  0  0  0  0  0  0  0  0
   16.9391   -6.6421   18.5283 C   0  0  0  0  0  0  0  0  0  0  0  0
   18.3682   -6.7696   18.1029 C   0  0  0  0  0  0  0  0  0  0  0  0
   19.0160   -5.5813   18.7036 N   0  0  0  0  0  0  0  0  0  0  0  0
   20.2083   -4.7562   17.8693 S   0  0  0  0  0  0  0  0  0  0  0  0
   20.8567   -3.9089   18.8485 O   0  0  0  0  0  0  0  0  0  0  0  0
   20.9454   -5.7224   17.0879 O   0  0  0  0  0  0  0  0  0  0  0  0
   19.5107   -3.6425   16.7097 C   0  0  0  0  0  0  0  0  0  0  0  0
   19.6273   -2.2346   16.7990 C   0  0  0  0  0  0  0  0  0  0  0  0
   18.9681   -1.7504   15.6954 C   0  0  0  0  0  0  0  0  0  0  0  0
   18.5044   -2.8422   15.0265 N   0  0  0  0  0  0  0  0  0  0  0  0
   17.7492   -2.8360   13.7979 C   0  0  0  0  0  0  0  0  0  0  0  0
   18.8021   -4.0144   15.6238 N   0  0  0  0  0  0  0  0  0  0  0  0
   16.1049   -7.3540   19.3514 C   0  0  0  0  0  0  0  0  0  0  0  0
   16.0106   -8.9663   19.3101 C   0  0  0  0  0  0  0  0  0  0  0  0
   16.9320   -9.7464   18.6013 C   0  0  0  0  0  0  0  0  0  0  0  0
   16.6275  -11.0589   18.1327 C   0  0  0  0  0  0  0  0  0  0  0  0
   15.3445  -11.6311   18.2343 C   0  0  0  0  0  0  0  0  0  0  0  0
   14.3685  -10.9411   18.9044 C   0  0  0  0  0  0  0  0  0  0  0  0
   12.8944  -11.2248   18.8047 N   0  0  0  0  0  0  0  0  0  0  0  0
   11.7509  -11.8771   17.6602 S   0  0  0  0  0  0  0  0  0  0  0  0
   11.6879  -11.0646   16.0725 C   0  0  0  0  0  0  0  0  0  0  0  0
   11.8274  -13.3292   17.6287 O   0  0  0  0  0  0  0  0  0  0  0  0
   10.4714  -11.3292   18.0849 O   0  0  0  0  0  0  0  0  0  0  0  0
   14.8196   -9.7228   19.6130 C   0  0  0  0  0  0  0  0  0  0  0  0
   15.1879   -6.4576   20.0529 N   0  0  0  0  0  0  0  0  0  0  0  0
   14.9603   -7.2175   23.2901 H   0  0  0  0  0  0  0  0  0  0  0  0
   14.0155   -8.3323   22.3053 H   0  0  0  0  0  0  0  0  0  0  0  0
   15.7747   -8.1762   22.0668 H   0  0  0  0  0  0  0  0  0  0  0  0
   13.3080   -5.1691   22.4580 H   0  0  0  0  0  0  0  0  0  0  0  0
   13.1187   -2.9678   21.1073 H   0  0  0  0  0  0  0  0  0  0  0  0
   16.8304   -5.0253   17.0125 H   0  0  0  0  0  0  0  0  0  0  0  0
   18.8692   -7.6406   18.5248 H   0  0  0  0  0  0  0  0  0  0  0  0
   18.4526   -6.7899   17.0127 H   0  0  0  0  0  0  0  0  0  0  0  0
   19.2435   -5.6568   19.6948 H   0  0  0  0  0  0  0  0  0  0  0  0
   20.1312   -1.6606   17.5652 H   0  0  0  0  0  0  0  0  0  0  0  0
   18.7956   -0.7422   15.3444 H   0  0  0  0  0  0  0  0  0  0  0  0
   17.7583   -1.8307   13.3695 H   0  0  0  0  0  0  0  0  0  0  0  0
   16.7244   -3.1351   14.0295 H   0  0  0  0  0  0  0  0  0  0  0  0
   18.2127   -3.5388   13.1012 H   0  0  0  0  0  0  0  0  0  0  0  0
   17.9056   -9.3728   18.3184 H   0  0  0  0  0  0  0  0  0  0  0  0
   17.3910  -11.6026   17.5771 H   0  0  0  0  0  0  0  0  0  0  0  0
   15.1384  -12.5768   17.7539 H   0  0  0  0  0  0  0  0  0  0  0  0
   12.3798  -10.9993   19.6533 H   0  0  0  0  0  0  0  0  0  0  0  0
   11.2867  -10.0666   16.1845 H   0  0  0  0  0  0  0  0  0  0  0  0
   10.9180  -11.5742   15.5021 H   0  0  0  0  0  0  0  0  0  0  0  0
   12.6086  -10.9800   15.5422 H   0  0  0  0  0  0  0  0  0  0  0  0
   14.1060   -9.2625   20.2778 H   0  0  0  0  0  0  0  0  0  0  0  0
  1  2  1  0
  2  3  2  0
  3  4  1  0
  4  5  1  0
  4  6  2  0
  6  7  1  0
  7  8  2  0
  8  9  1  0
  9 10  1  0
 10 11  1  0
 11 12  1  0
 12 13  2  0
 12 14  2  0
 12 15  1  0
 15 16  1  0
 16 17  2  0
 17 18  1  0
 18 19  1  0
 18 20  1  0
  9 21  2  0
 21 22  1  0
 22 23  2  0
 23 24  1  0
 24 25  2  0
 25 26  1  0
 26 27  1  0
 27 28  1  0
 28 29  1  0
 28 30  2  0
 28 31  2  0
 26 32  2  0
 21 33  1  0
 33  2  1  0
 33  6  1  0
 20 15  2  0
 32 22  1  0
  1 34  1  0
  1 35  1  0
  1 36  1  0
  3 37  1  0
  5 38  1  0
  8 39  1  0
 10 40  1  0
 10 41  1  0
 11 42  1  0
 16 43  1  0
 17 44  1  0
 19 45  1  0
 19 46  1  0
 19 47  1  0
 23 48  1  0
 24 49  1  0
 25 50  1  0
 27 51  1  0
 29 52  1  0
 29 53  1  0
 29 54  1  0
 32 55  1  0
M  END
>  <Energy>  (971) 
111.35562813962443

>  <compound_id>  (971) 
3012

>  <target_id>  (971) 
1

>  <reference_id>  (971) 
106

>  <inspiration_ids>  (971) 
[191, 106]

>  <energy_score>  (971) 
23.935413497481704

>  <distance_score>  (971) 
5.629626386674635

>  <path>  (971) 
/opt/xchem-fragalysis-2/maxwin/BulkDock/SCRATCH/505736/C3012-P106/C3012-P106.minimised.mol

>  <scratch_subdir>  (971) 
/opt/xchem-fragalysis-2/maxwin/BulkDock/SCRATCH/505736/C3012-P106

>  <fragmenstein_runtime>  (971) 
11.283133268356323

>  <fragmenstein_outcome>  (971) 
too moved

>  <fragmenstein_mode>  (971) 
expansion

>  <fragmenstein_error>  (971) 


$$$$
C3013-P191
     RDKit          3D

 29 30  0  0  0  0  0  0  0  0999 V2000
   14.5290    1.2739   13.5628 C   0  0  0  0  0  0  0  0  0  0  0  0
   13.5593    0.1158   13.8355 C   0  0  0  0  0  0  0  0  0  0  0  0
   12.1291    0.6194   14.0795 C   0  0  0  0  0  0  0  0  0  0  0  0
   11.2236   -0.4962   14.6197 C   0  0  0  0  0  0  0  0  0  0  0  0
   10.7889   -0.2213   15.9497 O   0  0  0  0  0  0  0  0  0  0  0  0
   11.8151   -1.8028   14.5413 N   0  0  0  0  0  0  0  0  0  0  0  0
   13.1458   -1.9374   15.0908 C   0  0  0  0  0  0  0  0  0  0  0  0
   13.1689   -2.3042   16.5777 C   0  0  0  0  0  0  0  0  0  0  0  0
   14.1906   -1.3579   17.1921 C   0  0  0  0  0  0  0  0  0  0  0  0
   15.5235   -1.9736   17.2213 N   0  0  0  0  0  0  0  0  0  0  0  0
   14.1287   -0.1461   16.2500 C   0  0  0  0  0  0  0  0  0  0  0  0
   13.9986   -0.7539   14.9229 N   0  0  0  0  0  0  0  0  0  0  0  0
   15.5412    0.8983   13.3779 H   0  0  0  0  0  0  0  0  0  0  0  0
   14.2132    1.8346   12.6764 H   0  0  0  0  0  0  0  0  0  0  0  0
   14.5724    1.9750   14.4029 H   0  0  0  0  0  0  0  0  0  0  0  0
   13.5569   -0.4857   12.9146 H   0  0  0  0  0  0  0  0  0  0  0  0
   11.7309    0.9695   13.1180 H   0  0  0  0  0  0  0  0  0  0  0  0
   12.1289    1.4806   14.7587 H   0  0  0  0  0  0  0  0  0  0  0  0
   10.3089   -0.4938   14.0232 H   0  0  0  0  0  0  0  0  0  0  0  0
   10.3202    0.6286   15.8796 H   0  0  0  0  0  0  0  0  0  0  0  0
   11.1852   -2.4953   14.9345 H   0  0  0  0  0  0  0  0  0  0  0  0
   13.6282   -2.7482   14.5367 H   0  0  0  0  0  0  0  0  0  0  0  0
   12.1972   -2.1262   17.0437 H   0  0  0  0  0  0  0  0  0  0  0  0
   13.4066   -3.3618   16.7400 H   0  0  0  0  0  0  0  0  0  0  0  0
   13.9199   -1.0798   18.2138 H   0  0  0  0  0  0  0  0  0  0  0  0
   15.8171   -2.1105   16.2509 H   0  0  0  0  0  0  0  0  0  0  0  0
   16.1909   -1.3042   17.6025 H   0  0  0  0  0  0  0  0  0  0  0  0
   15.0293    0.4729   16.3260 H   0  0  0  0  0  0  0  0  0  0  0  0
   13.2704    0.4770   16.5225 H   0  0  0  0  0  0  0  0  0  0  0  0
  1  2  1  0
  2  3  1  0
  3  4  1  0
  4  5  1  0
  4  6  1  0
  6  7  1  0
  7  8  1  0
  8  9  1  0
  9 10  1  0
  9 11  1  0
 11 12  1  0
 12  2  1  0
 12  7  1  0
  1 13  1  0
  1 14  1  0
  1 15  1  0
  2 16  1  0
  3 17  1  0
  3 18  1  0
  4 19  1  0
  5 20  1  0
  6 21  1  0
  7 22  1  0
  8 23  1  0
  8 24  1  0
  9 25  1  0
 10 26  1  0
 10 27  1  0
 11 28  1  0
 11 29  1  0
M  END
>  <Energy>  (972) 
-60.563757665503019

>  <compound_id>  (972) 
3013

>  <target_id>  (972) 
1

>  <reference_id>  (972) 
191

>  <inspiration_ids>  (972) 
[191, 111]

>  <energy_score>  (972) 
-12.74996740751601

>  <distance_score>  (972) 
1.3729114766996555

>  <path>  (972) 
/opt/xchem-fragalysis-2/maxwin/BulkDock/SCRATCH/505736/C3013-P191/C3013-P191.minimised.mol

>  <scratch_subdir>  (972) 
/opt/xchem-fragalysis-2/maxwin/BulkDock/SCRATCH/505736/C3013-P191

>  <fragmenstein_runtime>  (972) 
0.8665602207183838

>  <fragmenstein_outcome>  (972) 
too moved

>  <fragmenstein_mode>  (972) 
expansion

>  <fragmenstein_error>  (972) 


$$$$
C3013-P111
     RDKit          3D

 29 30  0  0  0  0  0  0  0  0999 V2000
   14.7962    1.4589   13.6643 C   0  0  0  0  0  0  0  0  0  0  0  0
   13.7842    0.3284   13.8775 C   0  0  0  0  0  0  0  0  0  0  0  0
   12.3727    0.8747   14.1222 C   0  0  0  0  0  0  0  0  0  0  0  0
   11.4124   -0.2435   14.5444 C   0  0  0  0  0  0  0  0  0  0  0  0
   10.8974   -0.0131   15.8521 O   0  0  0  0  0  0  0  0  0  0  0  0
   11.9773   -1.5587   14.4445 N   0  0  0  0  0  0  0  0  0  0  0  0
   13.2730   -1.7541   15.0449 C   0  0  0  0  0  0  0  0  0  0  0  0
   13.2314   -2.1687   16.5162 C   0  0  0  0  0  0  0  0  0  0  0  0
   14.3025   -1.3137   17.1776 C   0  0  0  0  0  0  0  0  0  0  0  0
   15.5942   -2.0111   17.1875 N   0  0  0  0  0  0  0  0  0  0  0  0
   14.3099   -0.0587   16.2895 C   0  0  0  0  0  0  0  0  0  0  0  0
   14.1702   -0.5987   14.9356 N   0  0  0  0  0  0  0  0  0  0  0  0
   15.7974    1.0551   13.4785 H   0  0  0  0  0  0  0  0  0  0  0  0
   14.5146    2.0657   12.7969 H   0  0  0  0  0  0  0  0  0  0  0  0
   14.8523    2.1241   14.5324 H   0  0  0  0  0  0  0  0  0  0  0  0
   13.7751   -0.2345   12.9325 H   0  0  0  0  0  0  0  0  0  0  0  0
   12.0167    1.3176   13.1826 H   0  0  0  0  0  0  0  0  0  0  0  0
   12.3855    1.6790   14.8678 H   0  0  0  0  0  0  0  0  0  0  0  0
   10.5458   -0.1830   13.8834 H   0  0  0  0  0  0  0  0  0  0  0  0
   10.3631    0.7937   15.7555 H   0  0  0  0  0  0  0  0  0  0  0  0
   11.3028   -2.2532   14.7505 H   0  0  0  0  0  0  0  0  0  0  0  0
   13.7574   -2.5567   14.4886 H   0  0  0  0  0  0  0  0  0  0  0  0
   12.2621   -1.9322   16.9579 H   0  0  0  0  0  0  0  0  0  0  0  0
   13.3885   -3.2452   16.6508 H   0  0  0  0  0  0  0  0  0  0  0  0
   14.0480   -1.0628   18.2096 H   0  0  0  0  0  0  0  0  0  0  0  0
   15.8685   -2.1639   16.2126 H   0  0  0  0  0  0  0  0  0  0  0  0
   16.3072   -1.3854   17.5603 H   0  0  0  0  0  0  0  0  0  0  0  0
   15.2360    0.5146   16.4049 H   0  0  0  0  0  0  0  0  0  0  0  0
   13.4737    0.5876   16.5785 H   0  0  0  0  0  0  0  0  0  0  0  0
  1  2  1  0
  2  3  1  0
  3  4  1  0
  4  5  1  0
  4  6  1  0
  6  7  1  0
  7  8  1  0
  8  9  1  0
  9 10  1  0
  9 11  1  0
 11 12  1  0
 12  2  1  0
 12  7  1  0
  1 13  1  0
  1 14  1  0
  1 15  1  0
  2 16  1  0
  3 17  1  0
  3 18  1  0
  4 19  1  0
  5 20  1  0
  6 21  1  0
  7 22  1  0
  8 23  1  0
  8 24  1  0
  9 25  1  0
 10 26  1  0
 10 27  1  0
 11 28  1  0
 11 29  1  0
M  END
>  <Energy>  (973) 
-60.365023365082656

>  <compound_id>  (973) 
3013

>  <target_id>  (973) 
1

>  <reference_id>  (973) 
111

>  <inspiration_ids>  (973) 
[191, 111]

>  <energy_score>  (973) 
-12.551233107095477

>  <distance_score>  (973) 
1.4043041755675247

>  <path>  (973) 
/opt/xchem-fragalysis-2/maxwin/BulkDock/SCRATCH/505736/C3013-P111/C3013-P111.minimised.mol

>  <scratch_subdir>  (973) 
/opt/xchem-fragalysis-2/maxwin/BulkDock/SCRATCH/505736/C3013-P111

>  <fragmenstein_runtime>  (973) 
0.8901519775390625

>  <fragmenstein_outcome>  (973) 
too moved

>  <fragmenstein_mode>  (973) 
expansion

>  <fragmenstein_error>  (973) 


$$$$
C3015-P191
     RDKit          3D

 62 65  0  0  0  0  0  0  0  0999 V2000
   13.2851    1.4819   11.1554 C   0  0  0  0  0  0  0  0  0  0  0  0
   13.6500    2.0014   12.4286 O   0  0  0  0  0  0  0  0  0  0  0  0
   14.1527    1.1258   13.3528 C   0  0  0  0  0  0  0  0  0  0  0  0
   14.2573   -0.2519   13.1630 C   0  0  0  0  0  0  0  0  0  0  0  0
   14.7285   -1.0869   14.1911 C   0  0  0  0  0  0  0  0  0  0  0  0
   15.1272   -0.5788   15.4387 C   0  0  0  0  0  0  0  0  0  0  0  0
   15.6880   -1.4364   16.6034 C   0  0  0  0  0  0  0  0  0  0  0  0
   15.6992   -2.9965   16.3412 C   0  0  0  0  0  0  0  0  0  0  0  0
   15.9838   -3.8473   17.6107 C   0  0  0  0  0  0  0  0  0  0  0  0
   14.8857   -4.6681   18.0506 N   0  0  0  0  0  0  0  0  0  0  0  0
   13.6509   -3.8644   18.8275 S   0  0  0  0  0  0  0  0  0  0  0  0
   14.2079   -2.7742   19.5956 O   0  0  0  0  0  0  0  0  0  0  0  0
   12.8644   -4.9176   19.4106 O   0  0  0  0  0  0  0  0  0  0  0  0
   12.7290   -3.1316   17.5060 C   0  0  0  0  0  0  0  0  0  0  0  0
   12.0168   -3.8735   16.5469 C   0  0  0  0  0  0  0  0  0  0  0  0
   11.5679   -2.9658   15.6147 C   0  0  0  0  0  0  0  0  0  0  0  0
   11.9709   -1.7527   16.0732 N   0  0  0  0  0  0  0  0  0  0  0  0
   11.5904   -0.4764   15.5377 C   0  0  0  0  0  0  0  0  0  0  0  0
   12.7220   -1.8223   17.1830 N   0  0  0  0  0  0  0  0  0  0  0  0
   16.8576   -3.2985   15.3659 C   0  0  0  0  0  0  0  0  0  0  0  0
   18.1451   -2.6808   15.7493 N   0  0  0  0  0  0  0  0  0  0  0  0
   17.9295   -2.0995   17.0329 N   0  0  0  0  0  0  0  0  0  0  0  0
   19.1249   -1.6766   17.7455 C   0  0  0  0  0  0  0  0  0  0  0  0
   20.2677   -1.9035   16.9654 O   0  0  0  0  0  0  0  0  0  0  0  0
   18.8704   -0.2146   18.0580 C   0  0  0  0  0  0  0  0  0  0  0  0
   17.3487   -0.0755   17.9753 C   0  0  0  0  0  0  0  0  0  0  0  0
   16.6902   -0.3669   19.3262 C   0  0  0  0  0  0  0  0  0  0  0  0
   17.0699   -0.9904   16.8722 N   0  0  0  0  0  0  0  0  0  0  0  0
   14.9882    0.8092   15.6207 C   0  0  0  0  0  0  0  0  0  0  0  0
   14.5385    1.6513   14.5930 C   0  0  0  0  0  0  0  0  0  0  0  0
   14.4359    2.9788   14.9296 O   0  0  0  0  0  0  0  0  0  0  0  0
   15.1676    3.8284   14.0466 C   0  0  0  0  0  0  0  0  0  0  0  0
   14.1303    0.9877   10.6653 H   0  0  0  0  0  0  0  0  0  0  0  0
   12.4254    0.8122   11.2460 H   0  0  0  0  0  0  0  0  0  0  0  0
   12.9824    2.3242   10.5259 H   0  0  0  0  0  0  0  0  0  0  0  0
   13.9520   -0.7248   12.2335 H   0  0  0  0  0  0  0  0  0  0  0  0
   14.7355   -2.1501   13.9778 H   0  0  0  0  0  0  0  0  0  0  0  0
   15.0573   -1.2501   17.4725 H   0  0  0  0  0  0  0  0  0  0  0  0
   14.7650   -3.3054   15.8829 H   0  0  0  0  0  0  0  0  0  0  0  0
   16.8020   -4.5601   17.4417 H   0  0  0  0  0  0  0  0  0  0  0  0
   16.3156   -3.2418   18.4584 H   0  0  0  0  0  0  0  0  0  0  0  0
   14.6061   -5.4779   17.5027 H   0  0  0  0  0  0  0  0  0  0  0  0
   11.8356   -4.9303   16.5834 H   0  0  0  0  0  0  0  0  0  0  0  0
   10.9639   -3.0803   14.7243 H   0  0  0  0  0  0  0  0  0  0  0  0
   11.6922   -0.4972   14.4515 H   0  0  0  0  0  0  0  0  0  0  0  0
   10.5431   -0.3016   15.8007 H   0  0  0  0  0  0  0  0  0  0  0  0
   12.2023    0.3130   15.9747 H   0  0  0  0  0  0  0  0  0  0  0  0
   17.0249   -4.3792   15.3165 H   0  0  0  0  0  0  0  0  0  0  0  0
   16.6322   -2.9719   14.3491 H   0  0  0  0  0  0  0  0  0  0  0  0
   18.3298   -1.9070   15.0988 H   0  0  0  0  0  0  0  0  0  0  0  0
   19.2160   -2.2571   18.6702 H   0  0  0  0  0  0  0  0  0  0  0  0
   19.9370   -2.5793   16.3423 H   0  0  0  0  0  0  0  0  0  0  0  0
   19.3536    0.4257   17.3077 H   0  0  0  0  0  0  0  0  0  0  0  0
   19.2719    0.0678   19.0370 H   0  0  0  0  0  0  0  0  0  0  0  0
   17.1102    0.9559   17.6970 H   0  0  0  0  0  0  0  0  0  0  0  0
   17.0765    0.3189   20.0887 H   0  0  0  0  0  0  0  0  0  0  0  0
   16.8882   -1.3841   19.6761 H   0  0  0  0  0  0  0  0  0  0  0  0
   15.6072   -0.2182   19.2842 H   0  0  0  0  0  0  0  0  0  0  0  0
   15.2265    1.2596   16.5804 H   0  0  0  0  0  0  0  0  0  0  0  0
   14.5125    4.2066   13.2565 H   0  0  0  0  0  0  0  0  0  0  0  0
   15.5154    4.6885   14.6272 H   0  0  0  0  0  0  0  0  0  0  0  0
   16.0487    3.3379   13.6166 H   0  0  0  0  0  0  0  0  0  0  0  0
  1  2  1  0
  2  3  1  0
  3  4  2  0
  4  5  1  0
  5  6  2  0
  6  7  1  0
  7  8  1  0
  8  9  1  0
  9 10  1  0
 10 11  1  0
 11 12  2  0
 11 13  2  0
 11 14  1  0
 14 15  1  0
 15 16  2  0
 16 17  1  0
 17 18  1  0
 17 19  1  0
  8 20  1  0
 20 21  1  0
 21 22  1  0
 22 23  1  0
 23 24  1  0
 23 25  1  0
 25 26  1  0
 26 27  1  0
 26 28  1  0
  6 29  1  0
 29 30  2  0
 30 31  1  0
 31 32  1  0
 30  3  1  0
 28  7  1  0
 19 14  2  0
 28 22  1  0
  1 33  1  0
  1 34  1  0
  1 35  1  0
  4 36  1  0
  5 37  1  0
  7 38  1  0
  8 39  1  0
  9 40  1  0
  9 41  1  0
 10 42  1  0
 15 43  1  0
 16 44  1  0
 18 45  1  0
 18 46  1  0
 18 47  1  0
 20 48  1  0
 20 49  1  0
 21 50  1  0
 23 51  1  0
 24 52  1  0
 25 53  1  0
 25 54  1  0
 26 55  1  0
 27 56  1  0
 27 57  1  0
 27 58  1  0
 29 59  1  0
 32 60  1  0
 32 61  1  0
 32 62  1  0
M  END
>  <Energy>  (974) 
102.8674096242466

>  <compound_id>  (974) 
3015

>  <target_id>  (974) 
1

>  <reference_id>  (974) 
191

>  <inspiration_ids>  (974) 
[191, 114]

>  <energy_score>  (974) 
-59.586178731882285

>  <distance_score>  (974) 
2.430476952119814

>  <path>  (974) 
/opt/xchem-fragalysis-2/maxwin/BulkDock/SCRATCH/505736/C3015-P191/C3015-P191.minimised.mol

>  <scratch_subdir>  (974) 
/opt/xchem-fragalysis-2/maxwin/BulkDock/SCRATCH/505736/C3015-P191

>  <fragmenstein_runtime>  (974) 
46.28170990943909

>  <fragmenstein_outcome>  (974) 
too moved

>  <fragmenstein_mode>  (974) 
expansion

>  <fragmenstein_error>  (974) 


$$$$
C3015-P114
     RDKit          3D

 62 65  0  0  0  0  0  0  0  0999 V2000
   17.6466    3.9746   14.4236 C   0  0  0  0  0  0  0  0  0  0  0  0
   16.3447    3.6585   14.8979 O   0  0  0  0  0  0  0  0  0  0  0  0
   16.1960    2.4743   15.5767 C   0  0  0  0  0  0  0  0  0  0  0  0
   17.1414    1.4454   15.5762 C   0  0  0  0  0  0  0  0  0  0  0  0
   16.8892    0.2549   16.2617 C   0  0  0  0  0  0  0  0  0  0  0  0
   15.6990    0.0770   16.9806 C   0  0  0  0  0  0  0  0  0  0  0  0
   15.4016   -1.2268   17.7241 C   0  0  0  0  0  0  0  0  0  0  0  0
   14.8191   -2.2689   16.7257 C   0  0  0  0  0  0  0  0  0  0  0  0
   13.3383   -2.4939   17.0313 C   0  0  0  0  0  0  0  0  0  0  0  0
   12.7072   -3.2428   15.9493 N   0  0  0  0  0  0  0  0  0  0  0  0
   11.5842   -2.4629   14.9642 S   0  0  0  0  0  0  0  0  0  0  0  0
   10.5767   -1.8885   15.8375 O   0  0  0  0  0  0  0  0  0  0  0  0
   11.2828   -3.4074   13.9201 O   0  0  0  0  0  0  0  0  0  0  0  0
   12.2978   -1.0817   14.1828 C   0  0  0  0  0  0  0  0  0  0  0  0
   11.6378    0.1590   14.0100 C   0  0  0  0  0  0  0  0  0  0  0  0
   12.5830    0.9831   13.4511 C   0  0  0  0  0  0  0  0  0  0  0  0
   13.7062    0.2214   13.3096 N   0  0  0  0  0  0  0  0  0  0  0  0
   14.9578    0.6250   12.7266 C   0  0  0  0  0  0  0  0  0  0  0  0
   13.5669   -1.0383   13.7457 N   0  0  0  0  0  0  0  0  0  0  0  0
   15.6261   -3.5730   16.7556 C   0  0  0  0  0  0  0  0  0  0  0  0
   15.8820   -4.0851   18.1083 N   0  0  0  0  0  0  0  0  0  0  0  0
   16.2496   -3.0287   19.0250 N   0  0  0  0  0  0  0  0  0  0  0  0
   17.4824   -3.3876   19.7570 C   0  0  0  0  0  0  0  0  0  0  0  0
   18.4176   -4.0217   18.8937 O   0  0  0  0  0  0  0  0  0  0  0  0
   18.0427   -2.0443   20.2045 C   0  0  0  0  0  0  0  0  0  0  0  0
   17.2210   -0.9942   19.4424 C   0  0  0  0  0  0  0  0  0  0  0  0
   16.2851   -0.2452   20.4014 C   0  0  0  0  0  0  0  0  0  0  0  0
   16.5840   -1.7930   18.3846 N   0  0  0  0  0  0  0  0  0  0  0  0
   14.7481    1.1119   16.9723 C   0  0  0  0  0  0  0  0  0  0  0  0
   14.9877    2.3054   16.2790 C   0  0  0  0  0  0  0  0  0  0  0  0
   14.0923    3.3447   16.2055 O   0  0  0  0  0  0  0  0  0  0  0  0
   13.0482    3.3687   17.1708 C   0  0  0  0  0  0  0  0  0  0  0  0
   18.3869    3.9381   15.2299 H   0  0  0  0  0  0  0  0  0  0  0  0
   17.9300    3.3173   13.5953 H   0  0  0  0  0  0  0  0  0  0  0  0
   17.6228    4.9993   14.0403 H   0  0  0  0  0  0  0  0  0  0  0  0
   18.0780    1.5270   15.0349 H   0  0  0  0  0  0  0  0  0  0  0  0
   17.6332   -0.5404   16.2310 H   0  0  0  0  0  0  0  0  0  0  0  0
   14.6456   -1.0053   18.4904 H   0  0  0  0  0  0  0  0  0  0  0  0
   14.9124   -1.8938   15.7015 H   0  0  0  0  0  0  0  0  0  0  0  0
   13.1989   -3.0435   17.9680 H   0  0  0  0  0  0  0  0  0  0  0  0
   12.8417   -1.5254   17.1468 H   0  0  0  0  0  0  0  0  0  0  0  0
   12.3977   -4.1921   16.1596 H   0  0  0  0  0  0  0  0  0  0  0  0
   10.6177    0.3991   14.2732 H   0  0  0  0  0  0  0  0  0  0  0  0
   12.5594    2.0214   13.1509 H   0  0  0  0  0  0  0  0  0  0  0  0
   15.0564    1.7107   12.7956 H   0  0  0  0  0  0  0  0  0  0  0  0
   15.7771    0.1380   13.2595 H   0  0  0  0  0  0  0  0  0  0  0  0
   14.9573    0.3157   11.6782 H   0  0  0  0  0  0  0  0  0  0  0  0
   15.1303   -4.3573   16.1734 H   0  0  0  0  0  0  0  0  0  0  0  0
   16.5911   -3.4122   16.2553 H   0  0  0  0  0  0  0  0  0  0  0  0
   15.0438   -4.5457   18.4652 H   0  0  0  0  0  0  0  0  0  0  0  0
   17.2749   -4.0536   20.6007 H   0  0  0  0  0  0  0  0  0  0  0  0
   17.8370   -4.2099   18.1304 H   0  0  0  0  0  0  0  0  0  0  0  0
   19.1059   -1.9530   19.9524 H   0  0  0  0  0  0  0  0  0  0  0  0
   17.9322   -1.9248   21.2882 H   0  0  0  0  0  0  0  0  0  0  0  0
   17.9046   -0.2616   18.9977 H   0  0  0  0  0  0  0  0  0  0  0  0
   15.7391    0.5534   19.8910 H   0  0  0  0  0  0  0  0  0  0  0  0
   16.8624    0.2252   21.2052 H   0  0  0  0  0  0  0  0  0  0  0  0
   15.5548   -0.9163   20.8668 H   0  0  0  0  0  0  0  0  0  0  0  0
   13.8149    0.9629   17.5043 H   0  0  0  0  0  0  0  0  0  0  0  0
   12.3068    2.5927   16.9559 H   0  0  0  0  0  0  0  0  0  0  0  0
   13.4395    3.2734   18.1893 H   0  0  0  0  0  0  0  0  0  0  0  0
   12.5458    4.3378   17.0954 H   0  0  0  0  0  0  0  0  0  0  0  0
  1  2  1  0
  2  3  1  0
  3  4  2  0
  4  5  1  0
  5  6  2  0
  6  7  1  0
  7  8  1  0
  8  9  1  0
  9 10  1  0
 10 11  1  0
 11 12  2  0
 11 13  2  0
 11 14  1  0
 14 15  1  0
 15 16  2  0
 16 17  1  0
 17 18  1  0
 17 19  1  0
  8 20  1  0
 20 21  1  0
 21 22  1  0
 22 23  1  0
 23 24  1  0
 23 25  1  0
 25 26  1  0
 26 27  1  0
 26 28  1  0
  6 29  1  0
 29 30  2  0
 30 31  1  0
 31 32  1  0
 30  3  1  0
 28  7  1  0
 19 14  2  0
 28 22  1  0
  1 33  1  0
  1 34  1  0
  1 35  1  0
  4 36  1  0
  5 37  1  0
  7 38  1  0
  8 39  1  0
  9 40  1  0
  9 41  1  0
 10 42  1  0
 15 43  1  0
 16 44  1  0
 18 45  1  0
 18 46  1  0
 18 47  1  0
 20 48  1  0
 20 49  1  0
 21 50  1  0
 23 51  1  0
 24 52  1  0
 25 53  1  0
 25 54  1  0
 26 55  1  0
 27 56  1  0
 27 57  1  0
 27 58  1  0
 29 59  1  0
 32 60  1  0
 32 61  1  0
 32 62  1  0
M  END
>  <Energy>  (975) 
75.726205768908883

>  <compound_id>  (975) 
3015

>  <target_id>  (975) 
1

>  <reference_id>  (975) 
114

>  <inspiration_ids>  (975) 
[191, 114]

>  <energy_score>  (975) 
-82.35263220203066

>  <distance_score>  (975) 
3.2336566642746543

>  <path>  (975) 
/opt/xchem-fragalysis-2/maxwin/BulkDock/SCRATCH/505736/C3015-P114/C3015-P114.minimised.mol

>  <scratch_subdir>  (975) 
/opt/xchem-fragalysis-2/maxwin/BulkDock/SCRATCH/505736/C3015-P114

>  <fragmenstein_runtime>  (975) 
51.363269329071045

>  <fragmenstein_outcome>  (975) 
too moved

>  <fragmenstein_mode>  (975) 
expansion

>  <fragmenstein_error>  (975) 


$$$$
C3015-P191
     RDKit          3D

 62 65  0  0  0  0  0  0  0  0999 V2000
   14.1371   -5.5073   17.2796 C   0  0  0  0  0  0  0  0  0  0  0  0
   12.9127   -4.8091   16.9493 O   0  0  0  0  0  0  0  0  0  0  0  0
   13.1172   -3.4802   17.2294 C   0  0  0  0  0  0  0  0  0  0  0  0
   13.4756   -3.1990   18.5309 C   0  0  0  0  0  0  0  0  0  0  0  0
   14.3266   -2.1516   18.7496 C   0  0  0  0  0  0  0  0  0  0  0  0
   14.8098   -1.3997   17.6681 C   0  0  0  0  0  0  0  0  0  0  0  0
   16.2545   -0.9594   17.8778 C   0  0  0  0  0  0  0  0  0  0  0  0
   17.2788   -1.6580   16.9326 C   0  0  0  0  0  0  0  0  0  0  0  0
   17.1222   -1.5560   15.4094 C   0  0  0  0  0  0  0  0  0  0  0  0
   17.0961   -0.1767   14.9312 N   0  0  0  0  0  0  0  0  0  0  0  0
   16.6562    0.1605   13.3469 S   0  0  0  0  0  0  0  0  0  0  0  0
   15.2313   -0.0462   13.2121 O   0  0  0  0  0  0  0  0  0  0  0  0
   17.2644    1.4340   13.0233 O   0  0  0  0  0  0  0  0  0  0  0  0
   17.3581   -0.9686   12.1980 C   0  0  0  0  0  0  0  0  0  0  0  0
   17.6526   -0.6181   10.8584 C   0  0  0  0  0  0  0  0  0  0  0  0
   18.1066   -1.7783   10.2807 C   0  0  0  0  0  0  0  0  0  0  0  0
   18.0703   -2.7327   11.2566 N   0  0  0  0  0  0  0  0  0  0  0  0
   18.4600   -4.1163   11.1102 C   0  0  0  0  0  0  0  0  0  0  0  0
   17.6168   -2.2725   12.4455 N   0  0  0  0  0  0  0  0  0  0  0  0
   18.7028   -1.2026   17.3228 C   0  0  0  0  0  0  0  0  0  0  0  0
   18.7773   -0.8123   18.7267 N   0  0  0  0  0  0  0  0  0  0  0  0
   17.9326    0.3472   18.9701 N   0  0  0  0  0  0  0  0  0  0  0  0
   17.4996    0.3261   20.3990 C   0  0  0  0  0  0  0  0  0  0  0  0
   18.3504    1.1414   21.1936 O   0  0  0  0  0  0  0  0  0  0  0  0
   16.0767    0.8685   20.4077 C   0  0  0  0  0  0  0  0  0  0  0  0
   15.8803    1.3273   18.9723 C   0  0  0  0  0  0  0  0  0  0  0  0
   14.4413    1.5792   18.5969 C   0  0  0  0  0  0  0  0  0  0  0  0
   16.6817    0.4238   18.1408 N   0  0  0  0  0  0  0  0  0  0  0  0
   14.1205   -1.4563   16.4426 C   0  0  0  0  0  0  0  0  0  0  0  0
   13.2698   -2.5429   16.2025 C   0  0  0  0  0  0  0  0  0  0  0  0
   12.6707   -2.8645   15.0208 O   0  0  0  0  0  0  0  0  0  0  0  0
   13.0862   -2.1588   13.8633 C   0  0  0  0  0  0  0  0  0  0  0  0
   14.2458   -5.6342   18.3601 H   0  0  0  0  0  0  0  0  0  0  0  0
   15.0242   -4.9924   16.8878 H   0  0  0  0  0  0  0  0  0  0  0  0
   14.1167   -6.4996   16.8333 H   0  0  0  0  0  0  0  0  0  0  0  0
   13.2340   -3.8846   19.3398 H   0  0  0  0  0  0  0  0  0  0  0  0
   14.7497   -2.0614   19.7494 H   0  0  0  0  0  0  0  0  0  0  0  0
   16.4711   -1.4815   18.8229 H   0  0  0  0  0  0  0  0  0  0  0  0
   17.2212   -2.7337   17.1644 H   0  0  0  0  0  0  0  0  0  0  0  0
   17.9901   -2.0565   14.9651 H   0  0  0  0  0  0  0  0  0  0  0  0
   16.2394   -2.1023   15.0720 H   0  0  0  0  0  0  0  0  0  0  0  0
   17.8271    0.4554   15.2574 H   0  0  0  0  0  0  0  0  0  0  0  0
   17.5361    0.3494   10.3883 H   0  0  0  0  0  0  0  0  0  0  0  0
   18.4384   -2.0062    9.2761 H   0  0  0  0  0  0  0  0  0  0  0  0
   17.5618   -4.7087   10.9336 H   0  0  0  0  0  0  0  0  0  0  0  0
   19.1448   -4.2077   10.2634 H   0  0  0  0  0  0  0  0  0  0  0  0
   18.9619   -4.4390   12.0258 H   0  0  0  0  0  0  0  0  0  0  0  0
   19.3963   -2.0353   17.1526 H   0  0  0  0  0  0  0  0  0  0  0  0
   19.0700   -0.3780   16.7011 H   0  0  0  0  0  0  0  0  0  0  0  0
   19.7401   -0.5539   18.9605 H   0  0  0  0  0  0  0  0  0  0  0  0
   17.5074   -0.6859   20.8256 H   0  0  0  0  0  0  0  0  0  0  0  0
   18.0435    1.0505   22.1095 H   0  0  0  0  0  0  0  0  0  0  0  0
   15.3696    0.0704   20.6580 H   0  0  0  0  0  0  0  0  0  0  0  0
   15.9367    1.6945   21.1129 H   0  0  0  0  0  0  0  0  0  0  0  0
   16.3613    2.3147   18.8810 H   0  0  0  0  0  0  0  0  0  0  0  0
   13.8072    0.7187   18.8020 H   0  0  0  0  0  0  0  0  0  0  0  0
   14.0372    2.4186   19.1739 H   0  0  0  0  0  0  0  0  0  0  0  0
   14.3480    1.8341   17.5360 H   0  0  0  0  0  0  0  0  0  0  0  0
   14.3968   -0.7751   15.6454 H   0  0  0  0  0  0  0  0  0  0  0  0
   12.8102   -1.1022   13.9241 H   0  0  0  0  0  0  0  0  0  0  0  0
   14.1567   -2.2978   13.6907 H   0  0  0  0  0  0  0  0  0  0  0  0
   12.5628   -2.5979   13.0110 H   0  0  0  0  0  0  0  0  0  0  0  0
  1  2  1  0
  2  3  1  0
  3  4  2  0
  4  5  1  0
  5  6  2  0
  6  7  1  0
  7  8  1  0
  8  9  1  0
  9 10  1  0
 10 11  1  0
 11 12  2  0
 11 13  2  0
 11 14  1  0
 14 15  1  0
 15 16  2  0
 16 17  1  0
 17 18  1  0
 17 19  1  0
  8 20  1  0
 20 21  1  0
 21 22  1  0
 22 23  1  0
 23 24  1  0
 23 25  1  0
 25 26  1  0
 26 27  1  0
 26 28  1  0
  6 29  1  0
 29 30  2  0
 30 31  1  0
 31 32  1  0
 30  3  1  0
 28  7  1  0
 19 14  2  0
 28 22  1  0
  1 33  1  0
  1 34  1  0
  1 35  1  0
  4 36  1  0
  5 37  1  0
  7 38  1  0
  8 39  1  0
  9 40  1  0
  9 41  1  0
 10 42  1  0
 15 43  1  0
 16 44  1  0
 18 45  1  0
 18 46  1  0
 18 47  1  0
 20 48  1  0
 20 49  1  0
 21 50  1  0
 23 51  1  0
 24 52  1  0
 25 53  1  0
 25 54  1  0
 26 55  1  0
 27 56  1  0
 27 57  1  0
 27 58  1  0
 29 59  1  0
 32 60  1  0
 32 61  1  0
 32 62  1  0
M  END
>  <Energy>  (976) 
134.00761923791202

>  <compound_id>  (976) 
3015

>  <target_id>  (976) 
1

>  <reference_id>  (976) 
191

>  <inspiration_ids>  (976) 
[191, 117]

>  <energy_score>  (976) 
-20.624543598848902

>  <distance_score>  (976) 
2.178905167184331

>  <path>  (976) 
/opt/xchem-fragalysis-2/maxwin/BulkDock/SCRATCH/505736/C3015-P191/C3015-P191.minimised.mol

>  <scratch_subdir>  (976) 
/opt/xchem-fragalysis-2/maxwin/BulkDock/SCRATCH/505736/C3015-P191

>  <fragmenstein_runtime>  (976) 
26.55183243751526

>  <fragmenstein_outcome>  (976) 
too moved

>  <fragmenstein_mode>  (976) 
expansion

>  <fragmenstein_error>  (976) 


$$$$
C3015-P117
     RDKit          3D

 62 65  0  0  0  0  0  0  0  0999 V2000
   11.7705   -2.7961   13.7025 C   0  0  0  0  0  0  0  0  0  0  0  0
   11.1179   -2.8785   14.9723 O   0  0  0  0  0  0  0  0  0  0  0  0
   11.9572   -2.2682   15.8619 C   0  0  0  0  0  0  0  0  0  0  0  0
   12.6414   -3.1093   16.7292 C   0  0  0  0  0  0  0  0  0  0  0  0
   13.7461   -2.6131   17.3950 C   0  0  0  0  0  0  0  0  0  0  0  0
   14.2016   -1.3078   17.1387 C   0  0  0  0  0  0  0  0  0  0  0  0
   15.5872   -0.8813   17.6048 C   0  0  0  0  0  0  0  0  0  0  0  0
   16.6390   -1.9236   17.1437 C   0  0  0  0  0  0  0  0  0  0  0  0
   16.8340   -1.9901   15.6249 C   0  0  0  0  0  0  0  0  0  0  0  0
   17.2082   -0.6845   15.0439 N   0  0  0  0  0  0  0  0  0  0  0  0
   16.7321   -0.4460   13.4231 S   0  0  0  0  0  0  0  0  0  0  0  0
   15.3270   -0.7582   13.2820 O   0  0  0  0  0  0  0  0  0  0  0  0
   17.2861    0.8230   13.0027 O   0  0  0  0  0  0  0  0  0  0  0  0
   17.5614   -1.6249   12.4279 C   0  0  0  0  0  0  0  0  0  0  0  0
   17.1478   -2.0077   11.1324 C   0  0  0  0  0  0  0  0  0  0  0  0
   18.0836   -2.9302   10.7269 C   0  0  0  0  0  0  0  0  0  0  0  0
   18.9696   -3.0526   11.7576 N   0  0  0  0  0  0  0  0  0  0  0  0
   20.1317   -3.9079   11.8016 C   0  0  0  0  0  0  0  0  0  0  0  0
   18.6783   -2.2738   12.8179 N   0  0  0  0  0  0  0  0  0  0  0  0
   17.9098   -1.6373   17.9216 C   0  0  0  0  0  0  0  0  0  0  0  0
   17.6913   -1.9067   19.3404 N   0  0  0  0  0  0  0  0  0  0  0  0
   16.3457   -1.6200   19.8164 N   0  0  0  0  0  0  0  0  0  0  0  0
   16.4071   -1.0383   21.1887 C   0  0  0  0  0  0  0  0  0  0  0  0
   17.7478   -0.9137   21.6889 O   0  0  0  0  0  0  0  0  0  0  0  0
   15.8195    0.3642   21.0617 C   0  0  0  0  0  0  0  0  0  0  0  0
   15.9322    0.6517   19.5695 C   0  0  0  0  0  0  0  0  0  0  0  0
   15.0252    1.7939   19.1419 C   0  0  0  0  0  0  0  0  0  0  0  0
   15.5854   -0.6666   19.0519 N   0  0  0  0  0  0  0  0  0  0  0  0
   13.4140   -0.4402   16.3704 C   0  0  0  0  0  0  0  0  0  0  0  0
   12.2578   -0.9058   15.7662 C   0  0  0  0  0  0  0  0  0  0  0  0
   11.5972   -0.0088   14.9723 O   0  0  0  0  0  0  0  0  0  0  0  0
   10.1940    0.0219   15.2024 C   0  0  0  0  0  0  0  0  0  0  0  0
   11.4304   -3.6354   13.0993 H   0  0  0  0  0  0  0  0  0  0  0  0
   12.8596   -2.8391   13.7716 H   0  0  0  0  0  0  0  0  0  0  0  0
   11.5434   -1.8539   13.2069 H   0  0  0  0  0  0  0  0  0  0  0  0
   12.3604   -4.1537   16.8251 H   0  0  0  0  0  0  0  0  0  0  0  0
   14.2974   -3.2717   18.0631 H   0  0  0  0  0  0  0  0  0  0  0  0
   15.8305    0.0676   17.1106 H   0  0  0  0  0  0  0  0  0  0  0  0
   16.3342   -2.9419   17.4246 H   0  0  0  0  0  0  0  0  0  0  0  0
   17.6226   -2.7153   15.3940 H   0  0  0  0  0  0  0  0  0  0  0  0
   15.9115   -2.3639   15.1687 H   0  0  0  0  0  0  0  0  0  0  0  0
   18.2127   -0.4997   15.0943 H   0  0  0  0  0  0  0  0  0  0  0  0
   16.2824   -1.6581   10.5868 H   0  0  0  0  0  0  0  0  0  0  0  0
   18.1858   -3.5040    9.8157 H   0  0  0  0  0  0  0  0  0  0  0  0
   20.2131   -4.4599   10.8620 H   0  0  0  0  0  0  0  0  0  0  0  0
   21.0151   -3.2809   11.9448 H   0  0  0  0  0  0  0  0  0  0  0  0
   20.0137   -4.6046   12.6353 H   0  0  0  0  0  0  0  0  0  0  0  0
   18.7284   -2.2770   17.5736 H   0  0  0  0  0  0  0  0  0  0  0  0
   18.2357   -0.5996   17.7785 H   0  0  0  0  0  0  0  0  0  0  0  0
   18.3810   -1.4263   19.9298 H   0  0  0  0  0  0  0  0  0  0  0  0
   15.8337   -1.6582   21.8867 H   0  0  0  0  0  0  0  0  0  0  0  0
   17.6530   -0.7999   22.6491 H   0  0  0  0  0  0  0  0  0  0  0  0
   14.7659    0.3546   21.3713 H   0  0  0  0  0  0  0  0  0  0  0  0
   16.3552    1.1130   21.6545 H   0  0  0  0  0  0  0  0  0  0  0  0
   16.9683    0.9168   19.3180 H   0  0  0  0  0  0  0  0  0  0  0  0
   15.1394    2.0193   18.0772 H   0  0  0  0  0  0  0  0  0  0  0  0
   13.9724    1.5608   19.3231 H   0  0  0  0  0  0  0  0  0  0  0  0
   15.2654    2.7045   19.7011 H   0  0  0  0  0  0  0  0  0  0  0  0
   13.7372    0.5816   16.1885 H   0  0  0  0  0  0  0  0  0  0  0  0
    9.9805    0.4302   16.1948 H   0  0  0  0  0  0  0  0  0  0  0  0
    9.7625    0.6994   14.4633 H   0  0  0  0  0  0  0  0  0  0  0  0
    9.7020   -0.9459   15.0884 H   0  0  0  0  0  0  0  0  0  0  0  0
  1  2  1  0
  2  3  1  0
  3  4  2  0
  4  5  1  0
  5  6  2  0
  6  7  1  0
  7  8  1  0
  8  9  1  0
  9 10  1  0
 10 11  1  0
 11 12  2  0
 11 13  2  0
 11 14  1  0
 14 15  1  0
 15 16  2  0
 16 17  1  0
 17 18  1  0
 17 19  1  0
  8 20  1  0
 20 21  1  0
 21 22  1  0
 22 23  1  0
 23 24  1  0
 23 25  1  0
 25 26  1  0
 26 27  1  0
 26 28  1  0
  6 29  1  0
 29 30  2  0
 30 31  1  0
 31 32  1  0
 30  3  1  0
 28  7  1  0
 19 14  2  0
 28 22  1  0
  1 33  1  0
  1 34  1  0
  1 35  1  0
  4 36  1  0
  5 37  1  0
  7 38  1  0
  8 39  1  0
  9 40  1  0
  9 41  1  0
 10 42  1  0
 15 43  1  0
 16 44  1  0
 18 45  1  0
 18 46  1  0
 18 47  1  0
 20 48  1  0
 20 49  1  0
 21 50  1  0
 23 51  1  0
 24 52  1  0
 25 53  1  0
 25 54  1  0
 26 55  1  0
 27 56  1  0
 27 57  1  0
 27 58  1  0
 29 59  1  0
 32 60  1  0
 32 61  1  0
 32 62  1  0
M  END
>  <Energy>  (977) 
91.308195233513345

>  <compound_id>  (977) 
3015

>  <target_id>  (977) 
1

>  <reference_id>  (977) 
117

>  <inspiration_ids>  (977) 
[191, 117]

>  <energy_score>  (977) 
-63.32396760324815

>  <distance_score>  (977) 
1.5668574786711555

>  <path>  (977) 
/opt/xchem-fragalysis-2/maxwin/BulkDock/SCRATCH/505736/C3015-P117/C3015-P117.minimised.mol

>  <scratch_subdir>  (977) 
/opt/xchem-fragalysis-2/maxwin/BulkDock/SCRATCH/505736/C3015-P117

>  <fragmenstein_runtime>  (977) 
25.53208637237549

>  <fragmenstein_outcome>  (977) 
too moved

>  <fragmenstein_mode>  (977) 
expansion

>  <fragmenstein_error>  (977) 


$$$$
C3016-P191
     RDKit          3D

 37 39  0  0  0  0  0  0  0  0999 V2000
   14.1548   -3.2104   17.4509 C   0  0  0  0  0  0  0  0  0  0  0  0
   13.1839   -2.4217   16.6146 C   0  0  0  0  0  0  0  0  0  0  0  0
   12.1206   -3.1366   16.0591 C   0  0  0  0  0  0  0  0  0  0  0  0
   11.1655   -2.4458   15.3617 C   0  0  0  0  0  0  0  0  0  0  0  0
   10.1728   -3.0573   14.7088 O   0  0  0  0  0  0  0  0  0  0  0  0
   11.0690   -1.1315   15.2836 N   0  0  0  0  0  0  0  0  0  0  0  0
   12.0984   -0.4433   15.7971 C   0  0  0  0  0  0  0  0  0  0  0  0
   13.2621   -1.0373   16.3407 C   0  0  0  0  0  0  0  0  0  0  0  0
   14.4272   -0.0836   16.6090 C   0  0  0  0  0  0  0  0  0  0  0  0
   15.7689   -0.7927   16.4709 C   0  0  0  0  0  0  0  0  0  0  0  0
   16.3246   -1.4511   15.3413 C   0  0  0  0  0  0  0  0  0  0  0  0
   17.5329   -1.9605   15.7582 C   0  0  0  0  0  0  0  0  0  0  0  0
   17.6598   -1.5967   17.0579 N   0  0  0  0  0  0  0  0  0  0  0  0
   18.7863   -1.8899   17.9024 C   0  0  0  0  0  0  0  0  0  0  0  0
   16.6103   -0.8925   17.5255 N   0  0  0  0  0  0  0  0  0  0  0  0
   14.3430    1.1792   15.7857 N   0  0  0  0  0  0  0  0  0  0  0  0
   14.4180    1.0269   14.3244 C   0  0  0  0  0  0  0  0  0  0  0  0
   13.0878    1.8443   16.1395 C   0  0  0  0  0  0  0  0  0  0  0  0
   11.8901    1.0381   15.6795 C   0  0  0  0  0  0  0  0  0  0  0  0
   14.5353   -2.6046   18.2782 H   0  0  0  0  0  0  0  0  0  0  0  0
   13.6595   -4.0730   17.9123 H   0  0  0  0  0  0  0  0  0  0  0  0
   14.9818   -3.5834   16.8424 H   0  0  0  0  0  0  0  0  0  0  0  0
   12.0271   -4.2085   16.1784 H   0  0  0  0  0  0  0  0  0  0  0  0
    9.8180   -2.3188   14.1692 H   0  0  0  0  0  0  0  0  0  0  0  0
   14.3439    0.2106   17.6665 H   0  0  0  0  0  0  0  0  0  0  0  0
   15.8888   -1.5546   14.3583 H   0  0  0  0  0  0  0  0  0  0  0  0
   18.2915   -2.5291   15.2388 H   0  0  0  0  0  0  0  0  0  0  0  0
   19.2231   -0.9452   18.2359 H   0  0  0  0  0  0  0  0  0  0  0  0
   18.4335   -2.4701   18.7587 H   0  0  0  0  0  0  0  0  0  0  0  0
   19.5289   -2.4660   17.3448 H   0  0  0  0  0  0  0  0  0  0  0  0
   14.1682    1.9699   13.8230 H   0  0  0  0  0  0  0  0  0  0  0  0
   15.4511    0.8159   14.0312 H   0  0  0  0  0  0  0  0  0  0  0  0
   13.7873    0.2396   13.9022 H   0  0  0  0  0  0  0  0  0  0  0  0
   13.0457    2.0009   17.2257 H   0  0  0  0  0  0  0  0  0  0  0  0
   13.0483    2.8535   15.7101 H   0  0  0  0  0  0  0  0  0  0  0  0
   11.0073    1.3292   16.2612 H   0  0  0  0  0  0  0  0  0  0  0  0
   11.6685    1.2740   14.6302 H   0  0  0  0  0  0  0  0  0  0  0  0
  1  2  1  0
  2  3  2  0
  3  4  1  0
  4  5  1  0
  4  6  2  0
  6  7  1  0
  7  8  2  0
  8  9  1  0
  9 10  1  0
 10 11  1  0
 11 12  2  0
 12 13  1  0
 13 14  1  0
 13 15  1  0
  9 16  1  0
 16 17  1  0
 16 18  1  0
 18 19  1  0
  8  2  1  0
 15 10  2  0
 19  7  1  0
  1 20  1  0
  1 21  1  0
  1 22  1  0
  3 23  1  0
  5 24  1  0
  9 25  1  0
 11 26  1  0
 12 27  1  0
 14 28  1  0
 14 29  1  0
 14 30  1  0
 17 31  1  0
 17 32  1  0
 17 33  1  0
 18 34  1  0
 18 35  1  0
 19 36  1  0
 19 37  1  0
M  END
>  <Energy>  (978) 
53.330177249778274

>  <compound_id>  (978) 
3016

>  <target_id>  (978) 
1

>  <reference_id>  (978) 
191

>  <inspiration_ids>  (978) 
[191, 118]

>  <energy_score>  (978) 
-38.97399724375259

>  <distance_score>  (978) 
2.1855237660419946

>  <path>  (978) 
/opt/xchem-fragalysis-2/maxwin/BulkDock/SCRATCH/505736/C3016-P191/C3016-P191.minimised.mol

>  <scratch_subdir>  (978) 
/opt/xchem-fragalysis-2/maxwin/BulkDock/SCRATCH/505736/C3016-P191

>  <fragmenstein_runtime>  (978) 
3.584932327270508

>  <fragmenstein_outcome>  (978) 
too moved

>  <fragmenstein_mode>  (978) 
expansion

>  <fragmenstein_error>  (978) 


$$$$
C3016-P118
     RDKit          3D

 37 39  0  0  0  0  0  0  0  0999 V2000
   14.1706   -3.1828   17.4537 C   0  0  0  0  0  0  0  0  0  0  0  0
   13.2023   -2.3952   16.6128 C   0  0  0  0  0  0  0  0  0  0  0  0
   12.1133   -3.1057   16.1024 C   0  0  0  0  0  0  0  0  0  0  0  0
   11.1709   -2.4252   15.3785 C   0  0  0  0  0  0  0  0  0  0  0  0
   10.1647   -3.0447   14.7543 O   0  0  0  0  0  0  0  0  0  0  0  0
   11.1039   -1.1137   15.2502 N   0  0  0  0  0  0  0  0  0  0  0  0
   12.1535   -0.4280   15.7209 C   0  0  0  0  0  0  0  0  0  0  0  0
   13.3057   -1.0225   16.2891 C   0  0  0  0  0  0  0  0  0  0  0  0
   14.4819   -0.0781   16.5400 C   0  0  0  0  0  0  0  0  0  0  0  0
   15.8146   -0.8059   16.4331 C   0  0  0  0  0  0  0  0  0  0  0  0
   16.3438   -1.5502   15.3456 C   0  0  0  0  0  0  0  0  0  0  0  0
   17.5489   -2.0495   15.7828 C   0  0  0  0  0  0  0  0  0  0  0  0
   17.7016   -1.5932   17.0489 N   0  0  0  0  0  0  0  0  0  0  0  0
   18.8376   -1.8393   17.8948 C   0  0  0  0  0  0  0  0  0  0  0  0
   16.6711   -0.8396   17.4800 N   0  0  0  0  0  0  0  0  0  0  0  0
   14.4231    1.1653   15.6875 N   0  0  0  0  0  0  0  0  0  0  0  0
   14.5205    0.9666   14.2336 C   0  0  0  0  0  0  0  0  0  0  0  0
   13.1689    1.8519   16.0006 C   0  0  0  0  0  0  0  0  0  0  0  0
   11.9749    1.0489   15.5289 C   0  0  0  0  0  0  0  0  0  0  0  0
   14.5980   -2.5599   18.2442 H   0  0  0  0  0  0  0  0  0  0  0  0
   13.6592   -4.0070   17.9652 H   0  0  0  0  0  0  0  0  0  0  0  0
   14.9640   -3.6115   16.8368 H   0  0  0  0  0  0  0  0  0  0  0  0
   11.9987   -4.1700   16.2687 H   0  0  0  0  0  0  0  0  0  0  0  0
    9.8430   -2.3347   14.1525 H   0  0  0  0  0  0  0  0  0  0  0  0
   14.3931    0.2440   17.5889 H   0  0  0  0  0  0  0  0  0  0  0  0
   15.8879   -1.7290   14.3817 H   0  0  0  0  0  0  0  0  0  0  0  0
   18.2822   -2.6764   15.2956 H   0  0  0  0  0  0  0  0  0  0  0  0
   19.2920   -0.8791   18.1516 H   0  0  0  0  0  0  0  0  0  0  0  0
   18.4919   -2.3507   18.7967 H   0  0  0  0  0  0  0  0  0  0  0  0
   19.5639   -2.4648   17.3697 H   0  0  0  0  0  0  0  0  0  0  0  0
   14.2975    1.8982   13.6993 H   0  0  0  0  0  0  0  0  0  0  0  0
   15.5544    0.7263   13.9658 H   0  0  0  0  0  0  0  0  0  0  0  0
   13.8835    0.1777   13.8237 H   0  0  0  0  0  0  0  0  0  0  0  0
   13.1030    2.0304   17.0823 H   0  0  0  0  0  0  0  0  0  0  0  0
   13.1514    2.8515   15.5483 H   0  0  0  0  0  0  0  0  0  0  0  0
   11.0764    1.3837   16.0605 H   0  0  0  0  0  0  0  0  0  0  0  0
   11.7962    1.2406   14.4626 H   0  0  0  0  0  0  0  0  0  0  0  0
  1  2  1  0
  2  3  2  0
  3  4  1  0
  4  5  1  0
  4  6  2  0
  6  7  1  0
  7  8  2  0
  8  9  1  0
  9 10  1  0
 10 11  1  0
 11 12  2  0
 12 13  1  0
 13 14  1  0
 13 15  1  0
  9 16  1  0
 16 17  1  0
 16 18  1  0
 18 19  1  0
  8  2  1  0
 15 10  2  0
 19  7  1  0
  1 20  1  0
  1 21  1  0
  1 22  1  0
  3 23  1  0
  5 24  1  0
  9 25  1  0
 11 26  1  0
 12 27  1  0
 14 28  1  0
 14 29  1  0
 14 30  1  0
 17 31  1  0
 17 32  1  0
 17 33  1  0
 18 34  1  0
 18 35  1  0
 19 36  1  0
 19 37  1  0
M  END
>  <Energy>  (979) 
53.075622156237415

>  <compound_id>  (979) 
3016

>  <target_id>  (979) 
1

>  <reference_id>  (979) 
118

>  <inspiration_ids>  (979) 
[191, 118]

>  <energy_score>  (979) 
-39.22855233729334

>  <distance_score>  (979) 
2.2142162437520216

>  <path>  (979) 
/opt/xchem-fragalysis-2/maxwin/BulkDock/SCRATCH/505736/C3016-P118/C3016-P118.minimised.mol

>  <scratch_subdir>  (979) 
/opt/xchem-fragalysis-2/maxwin/BulkDock/SCRATCH/505736/C3016-P118

>  <fragmenstein_runtime>  (979) 
4.375118255615234

>  <fragmenstein_outcome>  (979) 
too moved

>  <fragmenstein_mode>  (979) 
expansion

>  <fragmenstein_error>  (979) 


$$$$
C3017-P191
     RDKit          3D

 61 64  0  0  0  0  0  0  0  0999 V2000
   13.9541   -4.7694   20.3068 C   0  0  0  0  0  0  0  0  0  0  0  0
   13.7720   -3.7531   19.3177 N   0  0  0  0  0  0  0  0  0  0  0  0
   13.4655   -3.8655   17.8121 C   0  0  0  0  0  0  0  0  0  0  0  0
   13.2373   -4.8000   17.1562 O   0  0  0  0  0  0  0  0  0  0  0  0
   13.4545   -2.5216   17.1565 C   0  0  0  0  0  0  0  0  0  0  0  0
   12.4848   -2.2144   16.1897 C   0  0  0  0  0  0  0  0  0  0  0  0
   12.4501   -0.9365   15.6010 C   0  0  0  0  0  0  0  0  0  0  0  0
   13.3947    0.0423   15.9676 C   0  0  0  0  0  0  0  0  0  0  0  0
   13.5139    1.4459   15.3549 C   0  0  0  0  0  0  0  0  0  0  0  0
   12.2170    2.1575   14.8858 C   0  0  0  0  0  0  0  0  0  0  0  0
   11.2118    2.2902   16.0356 C   0  0  0  0  0  0  0  0  0  0  0  0
    9.8781    2.6440   15.5258 N   0  0  0  0  0  0  0  0  0  0  0  0
    9.1166    4.0638   16.0361 S   0  0  0  0  0  0  0  0  0  0  0  0
    9.8101    4.6052   17.1852 O   0  0  0  0  0  0  0  0  0  0  0  0
    7.7027    3.7583   16.0486 O   0  0  0  0  0  0  0  0  0  0  0  0
    9.2766    5.3015   14.8072 C   0  0  0  0  0  0  0  0  0  0  0  0
    8.9695    6.6627   15.0371 C   0  0  0  0  0  0  0  0  0  0  0  0
    9.2920    7.2982   13.8628 C   0  0  0  0  0  0  0  0  0  0  0  0
    9.7632    6.3306   13.0239 N   0  0  0  0  0  0  0  0  0  0  0  0
   10.2958    6.5490   11.6995 C   0  0  0  0  0  0  0  0  0  0  0  0
    9.7213    5.0869   13.5497 N   0  0  0  0  0  0  0  0  0  0  0  0
   12.5504    3.5738   14.3674 C   0  0  0  0  0  0  0  0  0  0  0  0
   13.9832    3.8554   14.3475 N   0  0  0  0  0  0  0  0  0  0  0  0
   14.7134    2.8038   13.7369 N   0  0  0  0  0  0  0  0  0  0  0  0
   14.4895    2.6930   12.2947 C   0  0  0  0  0  0  0  0  0  0  0  0
   15.1837    3.7082   11.6094 O   0  0  0  0  0  0  0  0  0  0  0  0
   15.0421    1.3202   12.0228 C   0  0  0  0  0  0  0  0  0  0  0  0
   14.5274    0.5282   13.2230 C   0  0  0  0  0  0  0  0  0  0  0  0
   15.4128   -0.6974   13.4357 C   0  0  0  0  0  0  0  0  0  0  0  0
   14.5841    1.4973   14.3334 N   0  0  0  0  0  0  0  0  0  0  0  0
   14.3802   -0.3098   16.9071 C   0  0  0  0  0  0  0  0  0  0  0  0
   14.4222   -1.5751   17.4842 C   0  0  0  0  0  0  0  0  0  0  0  0
   14.2352   -4.3031   21.2530 H   0  0  0  0  0  0  0  0  0  0  0  0
   14.7342   -5.4551   19.9695 H   0  0  0  0  0  0  0  0  0  0  0  0
   13.0149   -5.3147   20.4194 H   0  0  0  0  0  0  0  0  0  0  0  0
   14.0036   -2.7970   19.5441 H   0  0  0  0  0  0  0  0  0  0  0  0
   11.7634   -2.9733   15.8909 H   0  0  0  0  0  0  0  0  0  0  0  0
   11.7049   -0.7328   14.8351 H   0  0  0  0  0  0  0  0  0  0  0  0
   13.8747    2.0581   16.1989 H   0  0  0  0  0  0  0  0  0  0  0  0
   11.7636    1.5821   14.0674 H   0  0  0  0  0  0  0  0  0  0  0  0
   11.0854    1.3385   16.5543 H   0  0  0  0  0  0  0  0  0  0  0  0
   11.5840    3.0051   16.7725 H   0  0  0  0  0  0  0  0  0  0  0  0
    9.2059    1.8777   15.4915 H   0  0  0  0  0  0  0  0  0  0  0  0
    8.5882    7.1111   15.9447 H   0  0  0  0  0  0  0  0  0  0  0  0
    9.2446    8.3382   13.5686 H   0  0  0  0  0  0  0  0  0  0  0  0
    9.4584    6.7492   11.0278 H   0  0  0  0  0  0  0  0  0  0  0  0
   10.9721    7.4069   11.7330 H   0  0  0  0  0  0  0  0  0  0  0  0
   10.8441    5.6600   11.3776 H   0  0  0  0  0  0  0  0  0  0  0  0
   12.0993    4.3461   14.9987 H   0  0  0  0  0  0  0  0  0  0  0  0
   12.1105    3.7124   13.3734 H   0  0  0  0  0  0  0  0  0  0  0  0
   14.1556    4.7427   13.8676 H   0  0  0  0  0  0  0  0  0  0  0  0
   13.4350    2.7223   11.9984 H   0  0  0  0  0  0  0  0  0  0  0  0
   15.9689    3.8553   12.1665 H   0  0  0  0  0  0  0  0  0  0  0  0
   16.1392    1.3385   11.9685 H   0  0  0  0  0  0  0  0  0  0  0  0
   14.6757    0.9145   11.0733 H   0  0  0  0  0  0  0  0  0  0  0  0
   13.4958    0.2175   13.0133 H   0  0  0  0  0  0  0  0  0  0  0  0
   16.4365   -0.4107   13.7021 H   0  0  0  0  0  0  0  0  0  0  0  0
   15.0347   -1.3514   14.2234 H   0  0  0  0  0  0  0  0  0  0  0  0
   15.4641   -1.2947   12.5185 H   0  0  0  0  0  0  0  0  0  0  0  0
   15.1622    0.4057   17.1658 H   0  0  0  0  0  0  0  0  0  0  0  0
   15.2375   -1.8109   18.1635 H   0  0  0  0  0  0  0  0  0  0  0  0
  1  2  1  0
  2  3  1  0
  3  4  2  0
  3  5  1  0
  5  6  2  0
  6  7  1  0
  7  8  2  0
  8  9  1  0
  9 10  1  0
 10 11  1  0
 11 12  1  0
 12 13  1  0
 13 14  2  0
 13 15  2  0
 13 16  1  0
 16 17  1  0
 17 18  2  0
 18 19  1  0
 19 20  1  0
 19 21  1  0
 10 22  1  0
 22 23  1  0
 23 24  1  0
 24 25  1  0
 25 26  1  0
 25 27  1  0
 27 28  1  0
 28 29  1  0
 28 30  1  0
  8 31  1  0
 31 32  2  0
 32  5  1  0
 30  9  1  0
 21 16  2  0
 30 24  1  0
  1 33  1  0
  1 34  1  0
  1 35  1  0
  2 36  1  0
  6 37  1  0
  7 38  1  0
  9 39  1  0
 10 40  1  0
 11 41  1  0
 11 42  1  0
 12 43  1  0
 17 44  1  0
 18 45  1  0
 20 46  1  0
 20 47  1  0
 20 48  1  0
 22 49  1  0
 22 50  1  0
 23 51  1  0
 25 52  1  0
 26 53  1  0
 27 54  1  0
 27 55  1  0
 28 56  1  0
 29 57  1  0
 29 58  1  0
 29 59  1  0
 31 60  1  0
 32 61  1  0
M  END
>  <Energy>  (980) 
78.487208607061291

>  <compound_id>  (980) 
3017

>  <target_id>  (980) 
1

>  <reference_id>  (980) 
191

>  <inspiration_ids>  (980) 
[191, 120]

>  <energy_score>  (980) 
-47.336563639214205

>  <distance_score>  (980) 
1.3336153717594033

>  <path>  (980) 
/opt/xchem-fragalysis-2/maxwin/BulkDock/SCRATCH/505736/C3017-P191/C3017-P191.minimised.mol

>  <scratch_subdir>  (980) 
/opt/xchem-fragalysis-2/maxwin/BulkDock/SCRATCH/505736/C3017-P191

>  <fragmenstein_runtime>  (980) 
6.844794273376465

>  <fragmenstein_outcome>  (980) 
too moved

>  <fragmenstein_mode>  (980) 
expansion

>  <fragmenstein_error>  (980) 


$$$$
C3017-P120
     RDKit          3D

 61 64  0  0  0  0  0  0  0  0999 V2000
   14.6441   -4.6429   19.9437 C   0  0  0  0  0  0  0  0  0  0  0  0
   14.2421   -3.5926   19.0564 N   0  0  0  0  0  0  0  0  0  0  0  0
   14.4587   -3.4257   17.5372 C   0  0  0  0  0  0  0  0  0  0  0  0
   15.0639   -4.0783   16.7839 O   0  0  0  0  0  0  0  0  0  0  0  0
   13.8558   -2.1644   17.0298 C   0  0  0  0  0  0  0  0  0  0  0  0
   13.2107   -2.0962   15.7881 C   0  0  0  0  0  0  0  0  0  0  0  0
   12.9499   -0.8482   15.1831 C   0  0  0  0  0  0  0  0  0  0  0  0
   13.3030    0.3363   15.8377 C   0  0  0  0  0  0  0  0  0  0  0  0
   13.3370    1.7644   15.2900 C   0  0  0  0  0  0  0  0  0  0  0  0
   12.8256    2.2982   13.9286 C   0  0  0  0  0  0  0  0  0  0  0  0
   11.6518    1.7104   13.1717 C   0  0  0  0  0  0  0  0  0  0  0  0
   11.4796    2.3006   11.7830 N   0  0  0  0  0  0  0  0  0  0  0  0
   12.8382    2.5347   10.7238 S   0  0  0  0  0  0  0  0  0  0  0  0
   13.5012    3.7418   11.1644 O   0  0  0  0  0  0  0  0  0  0  0  0
   12.3521    2.4891    9.3634 O   0  0  0  0  0  0  0  0  0  0  0  0
   14.0649    1.2880   10.8259 C   0  0  0  0  0  0  0  0  0  0  0  0
   15.2407    1.2795   10.0381 C   0  0  0  0  0  0  0  0  0  0  0  0
   15.9126    0.1396   10.4160 C   0  0  0  0  0  0  0  0  0  0  0  0
   15.1359   -0.4662   11.3613 N   0  0  0  0  0  0  0  0  0  0  0  0
   15.3980   -1.7231   12.0268 C   0  0  0  0  0  0  0  0  0  0  0  0
   14.0285    0.2388   11.6722 N   0  0  0  0  0  0  0  0  0  0  0  0
   12.6216    3.8234   14.1506 C   0  0  0  0  0  0  0  0  0  0  0  0
   13.6522    4.4313   14.9911 N   0  0  0  0  0  0  0  0  0  0  0  0
   14.8666    3.6891   14.9834 N   0  0  0  0  0  0  0  0  0  0  0  0
   15.5717    3.7081   13.6927 C   0  0  0  0  0  0  0  0  0  0  0  0
   16.1366    4.9579   13.3742 O   0  0  0  0  0  0  0  0  0  0  0  0
   16.5790    2.6108   13.8929 C   0  0  0  0  0  0  0  0  0  0  0  0
   15.7912    1.5569   14.6750 C   0  0  0  0  0  0  0  0  0  0  0  0
   16.7522    0.7913   15.5822 C   0  0  0  0  0  0  0  0  0  0  0  0
   14.7497    2.3061   15.4286 N   0  0  0  0  0  0  0  0  0  0  0  0
   13.8083    0.2246   17.1544 C   0  0  0  0  0  0  0  0  0  0  0  0
   14.1357   -0.9964   17.7214 C   0  0  0  0  0  0  0  0  0  0  0  0
   15.1266   -4.1914   20.8137 H   0  0  0  0  0  0  0  0  0  0  0  0
   13.7517   -5.1819   20.2662 H   0  0  0  0  0  0  0  0  0  0  0  0
   15.3420   -5.3137   19.4407 H   0  0  0  0  0  0  0  0  0  0  0  0
   13.7286   -2.7977   19.4138 H   0  0  0  0  0  0  0  0  0  0  0  0
   12.9893   -3.0111   15.2480 H   0  0  0  0  0  0  0  0  0  0  0  0
   12.5633   -0.8533   14.1705 H   0  0  0  0  0  0  0  0  0  0  0  0
   12.7221    2.2817   16.0465 H   0  0  0  0  0  0  0  0  0  0  0  0
   13.6432    2.1304   13.2450 H   0  0  0  0  0  0  0  0  0  0  0  0
   11.7367    0.6335   13.0365 H   0  0  0  0  0  0  0  0  0  0  0  0
   10.7196    1.8884   13.7196 H   0  0  0  0  0  0  0  0  0  0  0  0
   11.0574    3.2299   11.8341 H   0  0  0  0  0  0  0  0  0  0  0  0
   15.5379    1.9994    9.2875 H   0  0  0  0  0  0  0  0  0  0  0  0
   16.8465   -0.2921   10.0824 H   0  0  0  0  0  0  0  0  0  0  0  0
   14.4880   -2.3268   12.0005 H   0  0  0  0  0  0  0  0  0  0  0  0
   16.2051   -2.2447   11.5068 H   0  0  0  0  0  0  0  0  0  0  0  0
   15.6874   -1.5093   13.0582 H   0  0  0  0  0  0  0  0  0  0  0  0
   11.6565    3.9916   14.6451 H   0  0  0  0  0  0  0  0  0  0  0  0
   12.5648    4.3715   13.2094 H   0  0  0  0  0  0  0  0  0  0  0  0
   13.8365    5.3976   14.7075 H   0  0  0  0  0  0  0  0  0  0  0  0
   14.9536    3.4474   12.8468 H   0  0  0  0  0  0  0  0  0  0  0  0
   16.5890    4.8497   12.5230 H   0  0  0  0  0  0  0  0  0  0  0  0
   17.4464    2.9855   14.4525 H   0  0  0  0  0  0  0  0  0  0  0  0
   16.9525    2.2210   12.9398 H   0  0  0  0  0  0  0  0  0  0  0  0
   15.3467    0.8555   13.9644 H   0  0  0  0  0  0  0  0  0  0  0  0
   17.1318    1.4238   16.3924 H   0  0  0  0  0  0  0  0  0  0  0  0
   16.2799   -0.0853   16.0275 H   0  0  0  0  0  0  0  0  0  0  0  0
   17.6140    0.4300   15.0096 H   0  0  0  0  0  0  0  0  0  0  0  0
   14.0852    1.1291   17.7029 H   0  0  0  0  0  0  0  0  0  0  0  0
   14.6825   -1.0023   18.6611 H   0  0  0  0  0  0  0  0  0  0  0  0
  1  2  1  0
  2  3  1  0
  3  4  2  0
  3  5  1  0
  5  6  2  0
  6  7  1  0
  7  8  2  0
  8  9  1  0
  9 10  1  0
 10 11  1  0
 11 12  1  0
 12 13  1  0
 13 14  2  0
 13 15  2  0
 13 16  1  0
 16 17  1  0
 17 18  2  0
 18 19  1  0
 19 20  1  0
 19 21  1  0
 10 22  1  0
 22 23  1  0
 23 24  1  0
 24 25  1  0
 25 26  1  0
 25 27  1  0
 27 28  1  0
 28 29  1  0
 28 30  1  0
  8 31  1  0
 31 32  2  0
 32  5  1  0
 30  9  1  0
 21 16  2  0
 30 24  1  0
  1 33  1  0
  1 34  1  0
  1 35  1  0
  2 36  1  0
  6 37  1  0
  7 38  1  0
  9 39  1  0
 10 40  1  0
 11 41  1  0
 11 42  1  0
 12 43  1  0
 17 44  1  0
 18 45  1  0
 20 46  1  0
 20 47  1  0
 20 48  1  0
 22 49  1  0
 22 50  1  0
 23 51  1  0
 25 52  1  0
 26 53  1  0
 27 54  1  0
 27 55  1  0
 28 56  1  0
 29 57  1  0
 29 58  1  0
 29 59  1  0
 31 60  1  0
 32 61  1  0
M  END
>  <Energy>  (981) 
111.36406810566693

>  <compound_id>  (981) 
3017

>  <target_id>  (981) 
1

>  <reference_id>  (981) 
120

>  <inspiration_ids>  (981) 
[191, 120]

>  <energy_score>  (981) 
-14.459704140605993

>  <distance_score>  (981) 
1.664158074629947

>  <path>  (981) 
/opt/xchem-fragalysis-2/maxwin/BulkDock/SCRATCH/505736/C3017-P120/C3017-P120.minimised.mol

>  <scratch_subdir>  (981) 
/opt/xchem-fragalysis-2/maxwin/BulkDock/SCRATCH/505736/C3017-P120

>  <fragmenstein_runtime>  (981) 
4.461807489395142

>  <fragmenstein_outcome>  (981) 
too moved

>  <fragmenstein_mode>  (981) 
expansion

>  <fragmenstein_error>  (981) 


$$$$
C3019-P191
     RDKit          3D

 55 59  0  0  0  0  0  0  0  0999 V2000
   17.4741  -10.5507   10.7392 C   0  0  0  0  0  0  0  0  0  0  0  0
   17.7585  -10.5488   12.1539 N   0  0  0  0  0  0  0  0  0  0  0  0
   17.7874  -11.6339   12.9814 C   0  0  0  0  0  0  0  0  0  0  0  0
   18.0576  -11.1505   14.2388 C   0  0  0  0  0  0  0  0  0  0  0  0
   18.1885   -9.7548   14.0645 C   0  0  0  0  0  0  0  0  0  0  0  0
   18.4780   -8.6353   15.3741 S   0  0  0  0  0  0  0  0  0  0  0  0
   17.3811   -8.8679   16.2890 O   0  0  0  0  0  0  0  0  0  0  0  0
   19.8549   -8.8615   15.7577 O   0  0  0  0  0  0  0  0  0  0  0  0
   18.3144   -7.0566   14.8023 N   0  0  0  0  0  0  0  0  0  0  0  0
   19.3911   -6.5463   13.9385 C   0  0  0  0  0  0  0  0  0  0  0  0
   19.4747   -5.0606   14.1132 C   0  0  0  0  0  0  0  0  0  0  0  0
   20.1453   -4.2550   13.0480 C   0  0  0  0  0  0  0  0  0  0  0  0
   20.3110   -2.9646   13.0386 N   0  0  0  0  0  0  0  0  0  0  0  0
   19.7948   -2.2952   14.1162 C   0  0  0  0  0  0  0  0  0  0  0  0
   19.8264   -0.9671   14.4553 C   0  0  0  0  0  0  0  0  0  0  0  0
   20.4027   -0.0360   13.6835 O   0  0  0  0  0  0  0  0  0  0  0  0
   19.1580   -0.7726   15.6741 C   0  0  0  0  0  0  0  0  0  0  0  0
   18.6238   -1.9953   16.0486 C   0  0  0  0  0  0  0  0  0  0  0  0
   17.7496   -2.3304   17.0598 N   0  0  0  0  0  0  0  0  0  0  0  0
   17.3194   -1.2683   18.0280 C   0  0  0  0  0  0  0  0  0  0  0  0
   15.9654   -0.6235   17.5924 C   0  0  0  0  0  0  0  0  0  0  0  0
   15.2396   -1.7872   16.9569 C   0  0  0  0  0  0  0  0  0  0  0  0
   13.8287   -1.7334   16.5540 C   0  0  0  0  0  0  0  0  0  0  0  0
   13.2611   -0.5251   16.1467 C   0  0  0  0  0  0  0  0  0  0  0  0
   11.9903   -0.5170   15.5662 C   0  0  0  0  0  0  0  0  0  0  0  0
   11.2917   -1.7101   15.3899 C   0  0  0  0  0  0  0  0  0  0  0  0
   11.8471   -2.9095   15.8301 C   0  0  0  0  0  0  0  0  0  0  0  0
   13.1049   -2.9214   16.4316 C   0  0  0  0  0  0  0  0  0  0  0  0
   16.2904   -3.1322   16.5326 S   0  0  0  0  0  6  0  0  0  0  0  0
   16.1743   -3.0442   14.8914 O   0  0  0  0  0  0  0  0  0  0  0  0
   19.1082   -2.9430   15.1381 N   0  0  0  0  0  0  0  0  0  0  0  0
   18.9898   -4.3276   15.1309 C   0  0  0  0  0  0  0  0  0  0  0  0
   18.0419   -9.3849   12.7760 N   0  0  0  0  0  0  0  0  0  0  0  0
   16.6194   -9.8951   10.5562 H   0  0  0  0  0  0  0  0  0  0  0  0
   18.3580  -10.1835   10.2118 H   0  0  0  0  0  0  0  0  0  0  0  0
   17.2419  -11.5678   10.4144 H   0  0  0  0  0  0  0  0  0  0  0  0
   17.5844  -12.6322   12.6192 H   0  0  0  0  0  0  0  0  0  0  0  0
   18.1266  -11.7108   15.1607 H   0  0  0  0  0  0  0  0  0  0  0  0
   17.4020   -6.9672   14.3388 H   0  0  0  0  0  0  0  0  0  0  0  0
   19.1566   -6.7910   12.8976 H   0  0  0  0  0  0  0  0  0  0  0  0
   20.3637   -6.9769   14.1928 H   0  0  0  0  0  0  0  0  0  0  0  0
   20.5390   -4.8339   12.1953 H   0  0  0  0  0  0  0  0  0  0  0  0
   20.7621   -0.4895   12.8958 H   0  0  0  0  0  0  0  0  0  0  0  0
   19.0043    0.1783   16.1619 H   0  0  0  0  0  0  0  0  0  0  0  0
   18.0883   -0.5058   18.1924 H   0  0  0  0  0  0  0  0  0  0  0  0
   17.1684   -1.7648   18.9956 H   0  0  0  0  0  0  0  0  0  0  0  0
   16.1428    0.1453   16.8347 H   0  0  0  0  0  0  0  0  0  0  0  0
   15.4170   -0.2101   18.4414 H   0  0  0  0  0  0  0  0  0  0  0  0
   13.8155    0.4070   16.2067 H   0  0  0  0  0  0  0  0  0  0  0  0
   11.5651    0.4175   15.2069 H   0  0  0  0  0  0  0  0  0  0  0  0
   10.3258   -1.7049   14.8875 H   0  0  0  0  0  0  0  0  0  0  0  0
   11.3126   -3.8429   15.6791 H   0  0  0  0  0  0  0  0  0  0  0  0
   13.5174   -3.8723   16.7545 H   0  0  0  0  0  0  0  0  0  0  0  0
   15.9991   -4.3277   17.0980 H   0  0  0  0  0  0  0  0  0  0  0  0
   18.4973   -4.7803   15.9805 H   0  0  0  0  0  0  0  0  0  0  0  0
  1  2  1  0
  2  3  1  0
  3  4  2  0
  4  5  1  0
  5  6  1  0
  6  7  2  0
  6  8  2  0
  6  9  1  0
  9 10  1  0
 10 11  1  0
 11 12  1  0
 12 13  2  0
 13 14  1  0
 14 15  2  0
 15 16  1  0
 15 17  1  0
 17 18  2  0
 18 19  1  0
 19 20  1  0
 20 21  1  0
 21 22  1  0
 22 23  1  0
 23 24  2  0
 24 25  1  0
 25 26  2  0
 26 27  1  0
 27 28  2  0
 22 29  2  0
 29 30  2  0
 18 31  1  0
 31 32  1  0
  5 33  2  0
 33  2  1  0
 32 11  2  0
 31 14  1  0
 29 19  1  0
 28 23  1  0
  1 34  1  0
  1 35  1  0
  1 36  1  0
  3 37  1  0
  4 38  1  0
  9 39  1  0
 10 40  1  0
 10 41  1  0
 12 42  1  0
 16 43  1  0
 17 44  1  0
 20 45  1  0
 20 46  1  0
 21 47  1  0
 21 48  1  0
 24 49  1  0
 25 50  1  0
 26 51  1  0
 27 52  1  0
 28 53  1  0
 29 54  1  0
 32 55  1  0
M  END
>  <Energy>  (982) 
81.914625175138568

>  <compound_id>  (982) 
3019

>  <target_id>  (982) 
1

>  <reference_id>  (982) 
191

>  <inspiration_ids>  (982) 
[191, 146]

>  <energy_score>  (982) 
-119.02214281101777

>  <distance_score>  (982) 
1.1407109555460953

>  <path>  (982) 
/opt/xchem-fragalysis-2/maxwin/BulkDock/SCRATCH/505736/C3019-P191/C3019-P191.minimised.mol

>  <scratch_subdir>  (982) 
/opt/xchem-fragalysis-2/maxwin/BulkDock/SCRATCH/505736/C3019-P191

>  <fragmenstein_runtime>  (982) 
64.29448676109314

>  <fragmenstein_outcome>  (982) 
too moved

>  <fragmenstein_mode>  (982) 
expansion

>  <fragmenstein_error>  (982) 


$$$$
C3019-P146
     RDKit          3D

 55 59  0  0  0  0  0  0  0  0999 V2000
   17.7048  -11.5194   12.8545 C   0  0  0  0  0  0  0  0  0  0  0  0
   17.3477  -10.6330   13.9364 N   0  0  0  0  0  0  0  0  0  0  0  0
   16.1985  -10.6638   14.6730 C   0  0  0  0  0  0  0  0  0  0  0  0
   16.2821   -9.6242   15.5674 C   0  0  0  0  0  0  0  0  0  0  0  0
   17.5387   -9.0377   15.3078 C   0  0  0  0  0  0  0  0  0  0  0  0
   18.1965   -7.6893   16.1975 S   0  0  0  0  0  0  0  0  0  0  0  0
   17.2173   -6.6289   16.0880 O   0  0  0  0  0  0  0  0  0  0  0  0
   18.5568   -8.2575   17.4795 O   0  0  0  0  0  0  0  0  0  0  0  0
   19.6515   -7.2130   15.4566 N   0  0  0  0  0  0  0  0  0  0  0  0
   19.5528   -6.6228   14.1056 C   0  0  0  0  0  0  0  0  0  0  0  0
   19.6582   -5.1346   14.1746 C   0  0  0  0  0  0  0  0  0  0  0  0
   20.2357   -4.3719   13.0224 C   0  0  0  0  0  0  0  0  0  0  0  0
   20.3994   -3.0811   12.9416 N   0  0  0  0  0  0  0  0  0  0  0  0
   19.9467   -2.3609   14.0167 C   0  0  0  0  0  0  0  0  0  0  0  0
   19.9643   -1.0186   14.3087 C   0  0  0  0  0  0  0  0  0  0  0  0
   20.4806   -0.1014   13.4800 O   0  0  0  0  0  0  0  0  0  0  0  0
   19.3237   -0.7871   15.5411 C   0  0  0  0  0  0  0  0  0  0  0  0
   18.8165   -2.0049   15.9576 C   0  0  0  0  0  0  0  0  0  0  0  0
   17.9031   -2.3469   16.9267 N   0  0  0  0  0  0  0  0  0  0  0  0
   17.3793   -1.2884   17.8422 C   0  0  0  0  0  0  0  0  0  0  0  0
   16.0129   -0.7283   17.3422 C   0  0  0  0  0  0  0  0  0  0  0  0
   15.3904   -1.9289   16.6752 C   0  0  0  0  0  0  0  0  0  0  0  0
   14.0189   -1.9610   16.1792 C   0  0  0  0  0  0  0  0  0  0  0  0
   13.5478   -0.9232   15.3752 C   0  0  0  0  0  0  0  0  0  0  0  0
   12.2637   -0.9974   14.8351 C   0  0  0  0  0  0  0  0  0  0  0  0
   11.4668   -2.1122   15.0846 C   0  0  0  0  0  0  0  0  0  0  0  0
   11.9526   -3.1495   15.8803 C   0  0  0  0  0  0  0  0  0  0  0  0
   13.2278   -3.0785   16.4368 C   0  0  0  0  0  0  0  0  0  0  0  0
   16.5094   -3.2130   16.2899 S   0  0  0  0  0  6  0  0  0  0  0  0
   16.4665   -3.0435   14.6492 O   0  0  0  0  0  0  0  0  0  0  0  0
   19.3409   -2.9724   15.1027 N   0  0  0  0  0  0  0  0  0  0  0  0
   19.2695   -4.3519   15.1912 C   0  0  0  0  0  0  0  0  0  0  0  0
   18.2076   -9.6649   14.3178 N   0  0  0  0  0  0  0  0  0  0  0  0
   17.5532  -10.9858   11.9133 H   0  0  0  0  0  0  0  0  0  0  0  0
   18.7543  -11.8037   12.9674 H   0  0  0  0  0  0  0  0  0  0  0  0
   17.0791  -12.4138   12.8968 H   0  0  0  0  0  0  0  0  0  0  0  0
   15.4261  -11.3961   14.4896 H   0  0  0  0  0  0  0  0  0  0  0  0
   15.5498   -9.3285   16.3062 H   0  0  0  0  0  0  0  0  0  0  0  0
   20.2708   -8.0258   15.4709 H   0  0  0  0  0  0  0  0  0  0  0  0
   18.6353   -6.9200   13.5910 H   0  0  0  0  0  0  0  0  0  0  0  0
   20.3863   -7.0266   13.5183 H   0  0  0  0  0  0  0  0  0  0  0  0
   20.5649   -4.9876   12.1683 H   0  0  0  0  0  0  0  0  0  0  0  0
   20.8089   -0.5725   12.6893 H   0  0  0  0  0  0  0  0  0  0  0  0
   19.1398    0.1796   15.9849 H   0  0  0  0  0  0  0  0  0  0  0  0
   18.0990   -0.4805   18.0137 H   0  0  0  0  0  0  0  0  0  0  0  0
   17.2175   -1.7667   18.8171 H   0  0  0  0  0  0  0  0  0  0  0  0
   16.1719    0.0587   16.6001 H   0  0  0  0  0  0  0  0  0  0  0  0
   15.4157   -0.3626   18.1761 H   0  0  0  0  0  0  0  0  0  0  0  0
   14.1775   -0.0692   15.1368 H   0  0  0  0  0  0  0  0  0  0  0  0
   11.8994   -0.1972   14.1947 H   0  0  0  0  0  0  0  0  0  0  0  0
   10.4800   -2.1809   14.6316 H   0  0  0  0  0  0  0  0  0  0  0  0
   11.3489   -4.0350   16.0473 H   0  0  0  0  0  0  0  0  0  0  0  0
   13.5939   -3.9036   17.0414 H   0  0  0  0  0  0  0  0  0  0  0  0
   16.2426   -4.4459   16.7842 H   0  0  0  0  0  0  0  0  0  0  0  0
   18.8552   -4.7458   16.1068 H   0  0  0  0  0  0  0  0  0  0  0  0
  1  2  1  0
  2  3  1  0
  3  4  2  0
  4  5  1  0
  5  6  1  0
  6  7  2  0
  6  8  2  0
  6  9  1  0
  9 10  1  0
 10 11  1  0
 11 12  1  0
 12 13  2  0
 13 14  1  0
 14 15  2  0
 15 16  1  0
 15 17  1  0
 17 18  2  0
 18 19  1  0
 19 20  1  0
 20 21  1  0
 21 22  1  0
 22 23  1  0
 23 24  2  0
 24 25  1  0
 25 26  2  0
 26 27  1  0
 27 28  2  0
 22 29  2  0
 29 30  2  0
 18 31  1  0
 31 32  1  0
  5 33  2  0
 33  2  1  0
 32 11  2  0
 31 14  1  0
 29 19  1  0
 28 23  1  0
  1 34  1  0
  1 35  1  0
  1 36  1  0
  3 37  1  0
  4 38  1  0
  9 39  1  0
 10 40  1  0
 10 41  1  0
 12 42  1  0
 16 43  1  0
 17 44  1  0
 20 45  1  0
 20 46  1  0
 21 47  1  0
 21 48  1  0
 24 49  1  0
 25 50  1  0
 26 51  1  0
 27 52  1  0
 28 53  1  0
 29 54  1  0
 32 55  1  0
M  END
>  <Energy>  (983) 
86.663987300447957

>  <compound_id>  (983) 
3019

>  <target_id>  (983) 
1

>  <reference_id>  (983) 
146

>  <inspiration_ids>  (983) 
[191, 146]

>  <energy_score>  (983) 
-114.27278068571042

>  <distance_score>  (983) 
1.1710051690463334

>  <path>  (983) 
/opt/xchem-fragalysis-2/maxwin/BulkDock/SCRATCH/505736/C3019-P146/C3019-P146.minimised.mol

>  <scratch_subdir>  (983) 
/opt/xchem-fragalysis-2/maxwin/BulkDock/SCRATCH/505736/C3019-P146

>  <fragmenstein_runtime>  (983) 
63.67809200286865

>  <fragmenstein_outcome>  (983) 
too moved

>  <fragmenstein_mode>  (983) 
expansion

>  <fragmenstein_error>  (983) 


$$$$
C3021-P192
     RDKit          3D

 51 54  0  0  0  0  0  0  0  0999 V2000
  -21.0478   -1.1640   12.6769 C   0  0  0  0  0  0  0  0  0  0  0  0
  -21.3826   -2.0717   13.7400 N   0  0  0  0  0  0  0  0  0  0  0  0
  -21.6462   -3.3978   13.5965 C   0  0  0  0  0  0  0  0  0  0  0  0
  -21.9325   -3.8541   14.8576 C   0  0  0  0  0  0  0  0  0  0  0  0
  -21.8055   -2.7298   15.7113 C   0  0  0  0  0  0  0  0  0  0  0  0
  -22.0666   -2.8338   17.4499 S   0  0  0  0  0  0  0  0  0  0  0  0
  -21.4645   -1.6586   18.0357 O   0  0  0  0  0  0  0  0  0  0  0  0
  -21.5807   -4.1599   17.7921 O   0  0  0  0  0  0  0  0  0  0  0  0
  -23.6605   -2.8359   17.8543 N   0  0  0  0  0  0  0  0  0  0  0  0
  -24.6708   -3.6165   17.1441 C   0  0  0  0  0  0  0  0  0  0  0  0
  -25.6237   -2.6092   16.5184 C   0  0  0  0  0  0  0  0  0  0  0  0
  -25.1677   -1.8881   15.4457 C   0  0  0  0  0  0  0  0  0  0  0  0
  -24.7379   -0.5933   15.6353 C   0  0  0  0  0  0  0  0  0  0  0  0
  -25.0840    0.0431   16.7624 C   0  0  0  0  0  0  0  0  0  0  0  0
  -24.4584    0.7970   17.6809 C   0  0  0  0  0  0  0  0  0  0  0  0
  -23.1684    1.4854   17.5617 C   0  0  0  0  0  0  0  0  0  0  0  0
  -22.6038    2.2913   18.4692 N   0  0  0  0  0  0  0  0  0  0  0  0
  -21.3657    2.6927   18.0038 N   0  0  0  0  0  0  0  0  0  0  0  0
  -21.2144    2.1271   16.8276 C   0  0  0  0  0  0  0  0  0  0  0  0
  -20.0373    2.2391   16.0264 C   0  0  0  0  0  0  0  0  0  0  0  0
  -19.8210    1.8696   14.7157 C   0  0  0  0  0  0  0  0  0  0  0  0
  -18.4394    2.0222   14.4476 C   0  0  0  0  0  0  0  0  0  0  0  0
  -17.8521    2.5042   15.5972 C   0  0  0  0  0  0  0  0  0  0  0  0
  -18.8405    2.6845   16.5332 N   0  0  0  0  0  0  0  0  0  0  0  0
  -22.3184    1.4080   16.4618 O   0  0  0  0  0  0  0  0  0  0  0  0
  -25.0399    0.7594   18.9162 C   0  0  0  0  0  0  0  0  0  0  0  0
  -25.9544   -0.0450   19.5249 C   0  0  0  0  0  0  0  0  0  0  0  0
  -26.6634   -1.1963   19.3650 C   0  0  0  0  0  0  0  0  0  0  0  0
  -27.3927   -1.5203   20.5083 O   0  0  0  0  0  0  0  0  0  0  0  0
  -26.9493   -2.2624   18.5537 N   0  0  0  0  0  0  0  0  0  0  0  0
  -26.6804   -2.1618   17.2423 C   0  0  0  0  0  0  0  0  0  0  0  0
  -21.4883   -1.6234   15.0040 N   0  0  0  0  0  0  0  0  0  0  0  0
  -20.0315   -0.7987   12.8433 H   0  0  0  0  0  0  0  0  0  0  0  0
  -21.1004   -1.6836   11.7168 H   0  0  0  0  0  0  0  0  0  0  0  0
  -21.7620   -0.3369   12.6870 H   0  0  0  0  0  0  0  0  0  0  0  0
  -21.6069   -3.9029   12.6422 H   0  0  0  0  0  0  0  0  0  0  0  0
  -22.1859   -4.8652   15.1342 H   0  0  0  0  0  0  0  0  0  0  0  0
  -24.0490   -2.0045   18.3121 H   0  0  0  0  0  0  0  0  0  0  0  0
  -25.1848   -4.2655   17.8623 H   0  0  0  0  0  0  0  0  0  0  0  0
  -24.2459   -4.2843   16.3909 H   0  0  0  0  0  0  0  0  0  0  0  0
  -24.5465   -2.4051   14.7147 H   0  0  0  0  0  0  0  0  0  0  0  0
  -23.8639   -0.2867   15.0664 H   0  0  0  0  0  0  0  0  0  0  0  0
  -26.0915   -0.1494   17.0851 H   0  0  0  0  0  0  0  0  0  0  0  0
  -20.5772    1.4743   14.0511 H   0  0  0  0  0  0  0  0  0  0  0  0
  -17.9273    1.7835   13.5242 H   0  0  0  0  0  0  0  0  0  0  0  0
  -16.8190    2.7220   15.8229 H   0  0  0  0  0  0  0  0  0  0  0  0
  -18.7140    2.9277   17.5083 H   0  0  0  0  0  0  0  0  0  0  0  0
  -24.6294    1.4876   19.6243 H   0  0  0  0  0  0  0  0  0  0  0  0
  -26.1376    0.3422   20.5377 H   0  0  0  0  0  0  0  0  0  0  0  0
  -27.7737   -2.3622   20.1883 H   0  0  0  0  0  0  0  0  0  0  0  0
  -27.3600   -1.5085   16.6804 H   0  0  0  0  0  0  0  0  0  0  0  0
  1  2  1  0
  2  3  1  0
  3  4  2  0
  4  5  1  0
  5  6  1  0
  6  7  2  0
  6  8  2  0
  6  9  1  0
  9 10  1  0
 10 11  1  0
 11 12  2  0
 12 13  1  0
 13 14  2  0
 14 15  1  0
 15 16  1  0
 16 17  2  0
 17 18  1  0
 18 19  2  0
 19 20  1  0
 20 21  2  0
 21 22  1  0
 22 23  2  0
 23 24  1  0
 19 25  1  0
 15 26  2  0
 26 27  1  0
 27 28  2  0
 28 29  1  0
 28 30  1  0
 30 31  2  0
  5 32  2  0
 32  2  1  0
 31 11  1  0
 25 16  1  0
 24 20  1  0
  1 33  1  0
  1 34  1  0
  1 35  1  0
  3 36  1  0
  4 37  1  0
  9 38  1  0
 10 39  1  0
 10 40  1  0
 12 41  1  0
 13 42  1  0
 14 43  1  0
 21 44  1  0
 22 45  1  0
 23 46  1  0
 24 47  1  0
 26 48  1  0
 27 49  1  0
 29 50  1  0
 31 51  1  0
M  END
>  <Energy>  (984) 
147.31622072197152

>  <compound_id>  (984) 
3021

>  <target_id>  (984) 
1

>  <reference_id>  (984) 
192

>  <inspiration_ids>  (984) 
[192, 43]

>  <energy_score>  (984) 
-199.75641302298192

>  <distance_score>  (984) 
1.9864044731463082

>  <path>  (984) 
/opt/xchem-fragalysis-2/maxwin/BulkDock/SCRATCH/505736/C3021-P192/C3021-P192.minimised.mol

>  <scratch_subdir>  (984) 
/opt/xchem-fragalysis-2/maxwin/BulkDock/SCRATCH/505736/C3021-P192

>  <fragmenstein_runtime>  (984) 
14.30464768409729

>  <fragmenstein_outcome>  (984) 
too moved

>  <fragmenstein_mode>  (984) 
expansion

>  <fragmenstein_error>  (984) 


$$$$
C3021-P43
     RDKit          3D

 51 54  0  0  0  0  0  0  0  0999 V2000
  -21.5020   -1.1691   12.5592 C   0  0  0  0  0  0  0  0  0  0  0  0
  -21.2108   -1.9652   13.7208 N   0  0  0  0  0  0  0  0  0  0  0  0
  -20.5977   -3.1783   13.7236 C   0  0  0  0  0  0  0  0  0  0  0  0
  -20.6111   -3.6016   15.0279 C   0  0  0  0  0  0  0  0  0  0  0  0
  -21.2899   -2.5962   15.7414 C   0  0  0  0  0  0  0  0  0  0  0  0
  -21.9601   -2.8495   17.3541 S   0  0  0  0  0  0  0  0  0  0  0  0
  -21.8630   -1.5791   18.0290 O   0  0  0  0  0  0  0  0  0  0  0  0
  -21.3539   -4.0567   17.8838 O   0  0  0  0  0  0  0  0  0  0  0  0
  -23.5581   -3.2023   16.9640 N   0  0  0  0  0  0  0  0  0  0  0  0
  -24.5783   -2.9950   18.0054 C   0  0  0  0  0  0  0  0  0  0  0  0
  -25.9189   -2.6702   17.3362 C   0  0  0  0  0  0  0  0  0  0  0  0
  -26.1437   -2.0803   16.1517 C   0  0  0  0  0  0  0  0  0  0  0  0
  -25.4751   -1.0094   15.7258 C   0  0  0  0  0  0  0  0  0  0  0  0
  -24.6781   -0.1316   16.3554 C   0  0  0  0  0  0  0  0  0  0  0  0
  -24.3228    0.3006   17.6002 C   0  0  0  0  0  0  0  0  0  0  0  0
  -23.0996    1.2182   17.5682 C   0  0  0  0  0  0  0  0  0  0  0  0
  -22.5564    1.9721   18.5328 N   0  0  0  0  0  0  0  0  0  0  0  0
  -21.3309    2.4628   18.0829 N   0  0  0  0  0  0  0  0  0  0  0  0
  -21.1917    2.0230   16.8542 C   0  0  0  0  0  0  0  0  0  0  0  0
  -20.0466    2.1802   16.0167 C   0  0  0  0  0  0  0  0  0  0  0  0
  -19.9669    2.1181   14.6404 C   0  0  0  0  0  0  0  0  0  0  0  0
  -18.6005    2.1527   14.2838 C   0  0  0  0  0  0  0  0  0  0  0  0
  -17.8810    2.2194   15.4541 C   0  0  0  0  0  0  0  0  0  0  0  0
  -18.7686    2.2824   16.5020 N   0  0  0  0  0  0  0  0  0  0  0  0
  -22.2806    1.3236   16.4428 O   0  0  0  0  0  0  0  0  0  0  0  0
  -24.7961    0.1059   18.8611 C   0  0  0  0  0  0  0  0  0  0  0  0
  -25.6371   -0.5219   19.7107 C   0  0  0  0  0  0  0  0  0  0  0  0
  -26.5648   -1.4855   19.9032 C   0  0  0  0  0  0  0  0  0  0  0  0
  -27.0125   -1.5481   21.2221 O   0  0  0  0  0  0  0  0  0  0  0  0
  -27.2801   -2.4840   19.3275 N   0  0  0  0  0  0  0  0  0  0  0  0
  -27.0736   -2.7058   18.0286 C   0  0  0  0  0  0  0  0  0  0  0  0
  -21.6791   -1.5904   14.9230 N   0  0  0  0  0  0  0  0  0  0  0  0
  -21.1854   -1.7008   11.6583 H   0  0  0  0  0  0  0  0  0  0  0  0
  -22.5788   -0.9852   12.5209 H   0  0  0  0  0  0  0  0  0  0  0  0
  -20.9562   -0.2267   12.6433 H   0  0  0  0  0  0  0  0  0  0  0  0
  -20.2402   -3.6447   12.8194 H   0  0  0  0  0  0  0  0  0  0  0  0
  -20.2632   -4.5440   15.4142 H   0  0  0  0  0  0  0  0  0  0  0  0
  -23.7864   -2.6541   16.1364 H   0  0  0  0  0  0  0  0  0  0  0  0
  -24.2267   -2.2887   18.7443 H   0  0  0  0  0  0  0  0  0  0  0  0
  -24.6766   -3.9583   18.5239 H   0  0  0  0  0  0  0  0  0  0  0  0
  -27.0392   -2.3193   15.5770 H   0  0  0  0  0  0  0  0  0  0  0  0
  -25.6524   -0.7780   14.6721 H   0  0  0  0  0  0  0  0  0  0  0  0
  -24.1847    0.4557   15.5704 H   0  0  0  0  0  0  0  0  0  0  0  0
  -20.8121    2.0125   13.9717 H   0  0  0  0  0  0  0  0  0  0  0  0
  -18.1873    2.0906   13.2848 H   0  0  0  0  0  0  0  0  0  0  0  0
  -16.8137    2.1971   15.6147 H   0  0  0  0  0  0  0  0  0  0  0  0
  -18.5474    2.2282   17.4913 H   0  0  0  0  0  0  0  0  0  0  0  0
  -24.2255    0.7654   19.5347 H   0  0  0  0  0  0  0  0  0  0  0  0
  -25.4763   -0.0739   20.7067 H   0  0  0  0  0  0  0  0  0  0  0  0
  -27.6394   -2.2897   21.1082 H   0  0  0  0  0  0  0  0  0  0  0  0
  -28.0027   -2.6952   17.4508 H   0  0  0  0  0  0  0  0  0  0  0  0
  1  2  1  0
  2  3  1  0
  3  4  2  0
  4  5  1  0
  5  6  1  0
  6  7  2  0
  6  8  2  0
  6  9  1  0
  9 10  1  0
 10 11  1  0
 11 12  2  0
 12 13  1  0
 13 14  2  0
 14 15  1  0
 15 16  1  0
 16 17  2  0
 17 18  1  0
 18 19  2  0
 19 20  1  0
 20 21  2  0
 21 22  1  0
 22 23  2  0
 23 24  1  0
 19 25  1  0
 15 26  2  0
 26 27  1  0
 27 28  2  0
 28 29  1  0
 28 30  1  0
 30 31  2  0
  5 32  2  0
 32  2  1  0
 31 11  1  0
 25 16  1  0
 24 20  1  0
  1 33  1  0
  1 34  1  0
  1 35  1  0
  3 36  1  0
  4 37  1  0
  9 38  1  0
 10 39  1  0
 10 40  1  0
 12 41  1  0
 13 42  1  0
 14 43  1  0
 21 44  1  0
 22 45  1  0
 23 46  1  0
 24 47  1  0
 26 48  1  0
 27 49  1  0
 29 50  1  0
 31 51  1  0
M  END
>  <Energy>  (985) 
156.70474964193463

>  <compound_id>  (985) 
3021

>  <target_id>  (985) 
1

>  <reference_id>  (985) 
43

>  <inspiration_ids>  (985) 
[192, 43]

>  <energy_score>  (985) 
-190.36788410301938

>  <distance_score>  (985) 
1.9602963045382555

>  <path>  (985) 
/opt/xchem-fragalysis-2/maxwin/BulkDock/SCRATCH/505736/C3021-P43/C3021-P43.minimised.mol

>  <scratch_subdir>  (985) 
/opt/xchem-fragalysis-2/maxwin/BulkDock/SCRATCH/505736/C3021-P43

>  <fragmenstein_runtime>  (985) 
14.686639070510864

>  <fragmenstein_outcome>  (985) 
too moved

>  <fragmenstein_mode>  (985) 
expansion

>  <fragmenstein_error>  (985) 


$$$$
C3023-P192
     RDKit          3D

 50 54  0  0  0  0  0  0  0  0999 V2000
  -21.3813    1.0267   13.5451 C   0  0  0  0  0  0  0  0  0  0  0  0
  -21.9599    0.2744   14.6279 N   0  0  0  0  0  0  0  0  0  0  0  0
  -23.2986    0.1088   14.7985 C   0  0  0  0  0  0  0  0  0  0  0  0
  -23.4487   -0.5039   16.0115 C   0  0  0  0  0  0  0  0  0  0  0  0
  -22.1331   -0.7903   16.4548 C   0  0  0  0  0  0  0  0  0  0  0  0
  -21.8667   -1.7023   17.9345 S   0  0  0  0  0  0  0  0  0  0  0  0
  -21.6692   -0.7152   18.9678 O   0  0  0  0  0  0  0  0  0  0  0  0
  -20.9282   -2.7737   17.6739 O   0  0  0  0  0  0  0  0  0  0  0  0
  -23.3533   -2.4584   18.3323 N   0  0  0  0  0  0  0  0  0  0  0  0
  -23.6176   -3.7789   17.7444 C   0  0  0  0  0  0  0  0  0  0  0  0
  -23.7230   -3.6850   16.2637 C   0  0  0  0  0  0  0  0  0  0  0  0
  -25.0672   -3.6285   15.6479 C   0  0  0  0  0  0  0  0  0  0  0  0
  -25.3222   -3.4149   14.3995 N   0  0  0  0  0  0  0  0  0  0  0  0
  -24.1955   -3.1530   13.6719 N   0  0  0  0  0  0  0  0  0  0  0  0
  -24.2435   -2.8028   12.3517 C   0  0  0  0  0  0  0  0  0  0  0  0
  -25.3831   -2.8073   11.6627 O   0  0  0  0  0  0  0  0  0  0  0  0
  -22.9781   -2.4251   11.9960 C   0  0  0  0  0  0  0  0  0  0  0  0
  -22.0774   -2.5313   13.1135 C   0  0  0  0  0  0  0  0  0  0  0  0
  -20.4479   -1.8208   12.8615 C   0  0  0  0  0  0  0  0  0  0  0  0
  -20.2503   -1.3054   11.6542 N   0  0  0  0  0  0  0  0  0  0  0  0
  -19.0857   -0.5742   11.6200 N   0  0  0  0  0  0  0  0  0  0  0  0
  -18.4262   -0.6962   12.7596 C   0  0  0  0  0  0  0  0  0  0  0  0
  -17.0214   -0.1308   12.8706 C   0  0  0  0  0  0  0  0  0  0  0  0
  -16.1681   -0.2423   11.7408 C   0  0  0  0  0  0  0  0  0  0  0  0
  -14.8822    0.3236   11.6638 C   0  0  0  0  0  0  0  0  0  0  0  0
  -14.4032    1.0691   12.7257 C   0  0  0  0  0  0  0  0  0  0  0  0
  -15.2268    1.2457   13.8394 C   0  0  0  0  0  0  0  0  0  0  0  0
  -16.5204    0.6566   13.9099 C   0  0  0  0  0  0  0  0  0  0  0  0
  -19.2818   -1.4601   13.6156 N   0  0  0  0  0  0  0  0  0  0  0  0
  -22.8641   -3.1359   14.1061 C   0  0  0  0  0  0  0  0  0  0  0  0
  -22.6753   -3.6115   15.4193 C   0  0  0  0  0  0  0  0  0  0  0  0
  -21.2077   -0.3093   15.5960 N   0  0  0  0  0  0  0  0  0  0  0  0
  -21.6875    0.5987   12.5910 H   0  0  0  0  0  0  0  0  0  0  0  0
  -20.2999    1.0819   13.6607 H   0  0  0  0  0  0  0  0  0  0  0  0
  -21.7742    2.0469   13.6103 H   0  0  0  0  0  0  0  0  0  0  0  0
  -24.0180    0.4838   14.0823 H   0  0  0  0  0  0  0  0  0  0  0  0
  -24.3848   -0.7419   16.4958 H   0  0  0  0  0  0  0  0  0  0  0  0
  -23.4745   -2.4026   19.3451 H   0  0  0  0  0  0  0  0  0  0  0  0
  -24.5408   -4.1742   18.1818 H   0  0  0  0  0  0  0  0  0  0  0  0
  -22.8221   -4.4605   18.0495 H   0  0  0  0  0  0  0  0  0  0  0  0
  -25.9154   -3.8118   16.3286 H   0  0  0  0  0  0  0  0  0  0  0  0
  -26.0727   -3.1002   12.2929 H   0  0  0  0  0  0  0  0  0  0  0  0
  -22.7174   -2.0325   11.0203 H   0  0  0  0  0  0  0  0  0  0  0  0
  -16.5239   -0.7661   10.8572 H   0  0  0  0  0  0  0  0  0  0  0  0
  -14.2857    0.1866   10.7649 H   0  0  0  0  0  0  0  0  0  0  0  0
  -13.4197    1.5300   12.6861 H   0  0  0  0  0  0  0  0  0  0  0  0
  -14.8717    1.8670   14.6594 H   0  0  0  0  0  0  0  0  0  0  0  0
  -17.1576    0.8771   14.7599 H   0  0  0  0  0  0  0  0  0  0  0  0
  -19.1464   -1.6370   14.6002 H   0  0  0  0  0  0  0  0  0  0  0  0
  -21.6485   -3.7440   15.7409 H   0  0  0  0  0  0  0  0  0  0  0  0
  1  2  1  0
  2  3  1  0
  3  4  2  0
  4  5  1  0
  5  6  1  0
  6  7  2  0
  6  8  2  0
  6  9  1  0
  9 10  1  0
 10 11  1  0
 11 12  1  0
 12 13  2  0
 13 14  1  0
 14 15  1  0
 15 16  1  0
 15 17  2  0
 17 18  1  0
 18 19  1  0
 19 20  2  0
 20 21  1  0
 21 22  2  0
 22 23  1  0
 23 24  2  0
 24 25  1  0
 25 26  2  0
 26 27  1  0
 27 28  2  0
 22 29  1  0
 18 30  2  0
 30 31  1  0
  5 32  2  0
 32  2  1  0
 31 11  2  0
 30 14  1  0
 29 19  1  0
 28 23  1  0
  1 33  1  0
  1 34  1  0
  1 35  1  0
  3 36  1  0
  4 37  1  0
  9 38  1  0
 10 39  1  0
 10 40  1  0
 12 41  1  0
 16 42  1  0
 17 43  1  0
 24 44  1  0
 25 45  1  0
 26 46  1  0
 27 47  1  0
 28 48  1  0
 29 49  1  0
 31 50  1  0
M  END
>  <Energy>  (986) 
100.29256128902557

>  <compound_id>  (986) 
3023

>  <target_id>  (986) 
1

>  <reference_id>  (986) 
192

>  <inspiration_ids>  (986) 
[192, 126]

>  <energy_score>  (986) 
-3.587013896121249

>  <distance_score>  (986) 
3.5225089253415662

>  <path>  (986) 
/opt/xchem-fragalysis-2/maxwin/BulkDock/SCRATCH/505736/C3023-P192/C3023-P192.minimised.mol

>  <scratch_subdir>  (986) 
/opt/xchem-fragalysis-2/maxwin/BulkDock/SCRATCH/505736/C3023-P192

>  <fragmenstein_runtime>  (986) 
16.931915998458862

>  <fragmenstein_outcome>  (986) 
too moved

>  <fragmenstein_mode>  (986) 
expansion

>  <fragmenstein_error>  (986) 


$$$$
C3023-P126
     RDKit          3D

 50 54  0  0  0  0  0  0  0  0999 V2000
  -21.2789   -3.6384   12.4954 C   0  0  0  0  0  0  0  0  0  0  0  0
  -20.9468   -3.4766   13.8887 N   0  0  0  0  0  0  0  0  0  0  0  0
  -19.8380   -2.8881   14.3927 C   0  0  0  0  0  0  0  0  0  0  0  0
  -20.0605   -2.7670   15.7408 C   0  0  0  0  0  0  0  0  0  0  0  0
  -21.3246   -3.3190   15.9729 C   0  0  0  0  0  0  0  0  0  0  0  0
  -22.1247   -3.3066   17.5252 S   0  0  0  0  0  0  0  0  0  0  0  0
  -21.5580   -2.1907   18.2468 O   0  0  0  0  0  0  0  0  0  0  0  0
  -21.9966   -4.6608   18.0178 O   0  0  0  0  0  0  0  0  0  0  0  0
  -23.7597   -2.9827   17.4337 N   0  0  0  0  0  0  0  0  0  0  0  0
  -24.5574   -3.4815   16.3132 C   0  0  0  0  0  0  0  0  0  0  0  0
  -24.8135   -2.2759   15.4659 C   0  0  0  0  0  0  0  0  0  0  0  0
  -26.0412   -1.5013   15.7443 C   0  0  0  0  0  0  0  0  0  0  0  0
  -26.1163   -0.2130   15.7351 N   0  0  0  0  0  0  0  0  0  0  0  0
  -24.9032    0.3600   15.4779 N   0  0  0  0  0  0  0  0  0  0  0  0
  -24.6270    1.6381   15.8747 C   0  0  0  0  0  0  0  0  0  0  0  0
  -25.5684    2.4418   16.3662 O   0  0  0  0  0  0  0  0  0  0  0  0
  -23.2786    1.8139   15.7416 C   0  0  0  0  0  0  0  0  0  0  0  0
  -22.6708    0.6835   15.0951 C   0  0  0  0  0  0  0  0  0  0  0  0
  -20.9351    0.8950   14.7580 C   0  0  0  0  0  0  0  0  0  0  0  0
  -20.3334    1.9582   15.2823 N   0  0  0  0  0  0  0  0  0  0  0  0
  -18.9965    2.0046   14.9122 N   0  0  0  0  0  0  0  0  0  0  0  0
  -18.7231    1.0057   14.0918 C   0  0  0  0  0  0  0  0  0  0  0  0
  -17.3625    0.8328   13.4354 C   0  0  0  0  0  0  0  0  0  0  0  0
  -17.0762   -0.0640   12.3985 C   0  0  0  0  0  0  0  0  0  0  0  0
  -15.7973   -0.1121   11.7850 C   0  0  0  0  0  0  0  0  0  0  0  0
  -14.7599    0.7232   12.2013 C   0  0  0  0  0  0  0  0  0  0  0  0
  -15.0010    1.6150   13.2367 C   0  0  0  0  0  0  0  0  0  0  0  0
  -16.2813    1.6671   13.8330 C   0  0  0  0  0  0  0  0  0  0  0  0
  -19.9253    0.2564   14.0085 N   0  0  0  0  0  0  0  0  0  0  0  0
  -23.7333   -0.2398   14.9939 C   0  0  0  0  0  0  0  0  0  0  0  0
  -23.8772   -1.6242   14.7454 C   0  0  0  0  0  0  0  0  0  0  0  0
  -21.8362   -3.8280   14.8351 N   0  0  0  0  0  0  0  0  0  0  0  0
  -21.0876   -4.6786   12.2211 H   0  0  0  0  0  0  0  0  0  0  0  0
  -20.6578   -2.9681   11.8960 H   0  0  0  0  0  0  0  0  0  0  0  0
  -22.3331   -3.3924   12.3467 H   0  0  0  0  0  0  0  0  0  0  0  0
  -19.0034   -2.5686   13.7901 H   0  0  0  0  0  0  0  0  0  0  0  0
  -19.4023   -2.3309   16.4737 H   0  0  0  0  0  0  0  0  0  0  0  0
  -23.9642   -2.0425   17.7766 H   0  0  0  0  0  0  0  0  0  0  0  0
  -25.4965   -3.8763   16.7169 H   0  0  0  0  0  0  0  0  0  0  0  0
  -24.0937   -4.3068   15.7715 H   0  0  0  0  0  0  0  0  0  0  0  0
  -26.9425   -2.0922   15.9789 H   0  0  0  0  0  0  0  0  0  0  0  0
  -26.3986    1.9226   16.3506 H   0  0  0  0  0  0  0  0  0  0  0  0
  -22.7622    2.7255   16.0197 H   0  0  0  0  0  0  0  0  0  0  0  0
  -17.8447   -0.7338   12.0238 H   0  0  0  0  0  0  0  0  0  0  0  0
  -15.6232   -0.8140   10.9706 H   0  0  0  0  0  0  0  0  0  0  0  0
  -13.7861    0.6801   11.7215 H   0  0  0  0  0  0  0  0  0  0  0  0
  -14.2162    2.2894   13.5763 H   0  0  0  0  0  0  0  0  0  0  0  0
  -16.4480    2.4065   14.6155 H   0  0  0  0  0  0  0  0  0  0  0  0
  -20.0697   -0.5423   13.4196 H   0  0  0  0  0  0  0  0  0  0  0  0
  -22.9857   -2.0801   14.3893 H   0  0  0  0  0  0  0  0  0  0  0  0
  1  2  1  0
  2  3  1  0
  3  4  2  0
  4  5  1  0
  5  6  1  0
  6  7  2  0
  6  8  2  0
  6  9  1  0
  9 10  1  0
 10 11  1  0
 11 12  1  0
 12 13  2  0
 13 14  1  0
 14 15  1  0
 15 16  1  0
 15 17  2  0
 17 18  1  0
 18 19  1  0
 19 20  2  0
 20 21  1  0
 21 22  2  0
 22 23  1  0
 23 24  2  0
 24 25  1  0
 25 26  2  0
 26 27  1  0
 27 28  2  0
 22 29  1  0
 18 30  2  0
 30 31  1  0
  5 32  2  0
 32  2  1  0
 31 11  2  0
 30 14  1  0
 29 19  1  0
 28 23  1  0
  1 33  1  0
  1 34  1  0
  1 35  1  0
  3 36  1  0
  4 37  1  0
  9 38  1  0
 10 39  1  0
 10 40  1  0
 12 41  1  0
 16 42  1  0
 17 43  1  0
 24 44  1  0
 25 45  1  0
 26 46  1  0
 27 47  1  0
 28 48  1  0
 29 49  1  0
 31 50  1  0
M  END
>  <Energy>  (987) 
115.69168311239282

>  <compound_id>  (987) 
3023

>  <target_id>  (987) 
1

>  <reference_id>  (987) 
126

>  <inspiration_ids>  (987) 
[192, 126]

>  <energy_score>  (987) 
11.812107927244199

>  <distance_score>  (987) 
3.316470469839355

>  <path>  (987) 
/opt/xchem-fragalysis-2/maxwin/BulkDock/SCRATCH/505736/C3023-P126/C3023-P126.minimised.mol

>  <scratch_subdir>  (987) 
/opt/xchem-fragalysis-2/maxwin/BulkDock/SCRATCH/505736/C3023-P126

>  <fragmenstein_runtime>  (987) 
17.597166538238525

>  <fragmenstein_outcome>  (987) 
too moved

>  <fragmenstein_mode>  (987) 
expansion

>  <fragmenstein_error>  (987) 


$$$$
C3024-P192
     RDKit          3D

 74 78  0  0  0  0  0  0  0  0999 V2000
  -27.2718   -7.8425   18.2129 C   0  0  0  0  0  0  0  0  0  0  0  0
  -26.4665   -7.0900   19.2293 C   0  0  0  0  0  0  0  0  0  0  0  0
  -26.0947   -7.6969   20.4002 C   0  0  0  0  0  0  0  0  0  0  0  0
  -25.3221   -6.9290   21.2249 C   0  0  0  0  0  0  0  0  0  0  0  0
  -24.8392   -7.4945   22.3645 O   0  0  0  0  0  0  0  0  0  0  0  0
  -24.9514   -5.6600   21.0014 N   0  0  0  0  0  0  0  0  0  0  0  0
  -25.4455   -5.1102   19.8827 C   0  0  0  0  0  0  0  0  0  0  0  0
  -25.4280   -3.6046   19.7866 C   0  0  0  0  0  0  0  0  0  0  0  0
  -24.1116   -2.9127   19.3962 C   0  0  0  0  0  0  0  0  0  0  0  0
  -24.1012   -1.5377   19.9550 N   0  0  0  0  0  0  0  0  0  0  0  0
  -25.1004   -0.6365   19.3599 C   0  0  0  0  0  0  0  0  0  0  0  0
  -25.2292    0.7119   20.0987 C   0  0  0  0  0  0  0  0  0  0  0  0
  -25.9514    0.7276   21.4643 C   0  0  0  0  0  0  0  0  0  0  0  0
  -25.2934   -0.1898   22.4063 N   0  0  0  0  0  0  0  0  0  0  0  0
  -27.4429    0.5062   21.4853 C   0  0  0  0  0  0  0  0  0  0  0  0
  -28.0314    0.5758   22.7327 O   0  0  0  0  0  0  0  0  0  0  0  0
  -29.3265    0.2292   22.5284 C   0  0  0  0  0  0  0  0  0  0  0  0
  -29.6433   -0.0454   21.2848 N   0  0  0  0  0  0  0  0  0  0  0  0
  -28.4702    0.2128   20.5976 C   0  0  0  0  0  0  0  0  0  0  0  0
  -28.3189   -0.0095   19.1717 C   0  0  0  0  0  0  0  0  0  0  0  0
  -27.9006    0.8197   18.4644 O   0  0  0  0  0  0  0  0  0  0  0  0
  -28.6973   -1.4806   18.8784 N   0  0  0  0  0  0  0  0  0  0  0  0
  -28.5573   -2.2241   17.7377 C   0  0  0  0  0  0  0  0  0  0  0  0
  -28.4921   -3.5574   17.8875 C   0  0  0  0  0  0  0  0  0  0  0  0
  -27.5703   -4.2875   17.1644 N   0  0  0  0  0  0  0  0  0  0  0  0
  -26.5863   -3.7043   16.3913 C   0  0  0  0  0  0  0  0  0  0  0  0
  -25.5448   -4.2869   16.1127 O   0  0  0  0  0  0  0  0  0  0  0  0
  -26.8661   -2.3303   15.9376 C   0  0  0  0  0  0  0  0  0  0  0  0
  -26.1436   -1.7635   14.8883 C   0  0  0  0  0  0  0  0  0  0  0  0
  -26.5693   -0.5531   14.3498 C   0  0  0  0  0  0  0  0  0  0  0  0
  -27.7149    0.0640   14.8474 C   0  0  0  0  0  0  0  0  0  0  0  0
  -28.3984   -0.4880   15.9312 C   0  0  0  0  0  0  0  0  0  0  0  0
  -27.9431   -1.6620   16.5265 C   0  0  0  0  0  0  0  0  0  0  0  0
  -23.8528   -2.8575   17.9468 N   0  0  0  0  0  0  0  0  0  0  0  0
  -22.2006   -2.8258   17.5729 S   0  0  0  0  0  0  0  0  0  0  0  0
  -21.6473   -1.6399   18.1921 O   0  0  0  0  0  0  0  0  0  0  0  0
  -21.7083   -4.1475   17.9095 O   0  0  0  0  0  0  0  0  0  0  0  0
  -21.9383   -2.6434   15.8595 C   0  0  0  0  0  0  0  0  0  0  0  0
  -21.1637   -1.6166   15.2697 C   0  0  0  0  0  0  0  0  0  0  0  0
  -21.1485   -1.9106   13.9258 C   0  0  0  0  0  0  0  0  0  0  0  0
  -21.8710   -3.0613   13.7871 N   0  0  0  0  0  0  0  0  0  0  0  0
  -22.0927   -3.8083   12.5733 C   0  0  0  0  0  0  0  0  0  0  0  0
  -22.4316   -3.4874   14.9340 N   0  0  0  0  0  0  0  0  0  0  0  0
  -26.1827   -5.7904   18.9724 N   0  0  0  0  0  0  0  0  0  0  0  0
  -28.3385   -7.7308   18.4285 H   0  0  0  0  0  0  0  0  0  0  0  0
  -27.0731   -7.4607   17.2066 H   0  0  0  0  0  0  0  0  0  0  0  0
  -27.0196   -8.9074   18.2182 H   0  0  0  0  0  0  0  0  0  0  0  0
  -26.3327   -8.7230   20.6396 H   0  0  0  0  0  0  0  0  0  0  0  0
  -23.8973   -7.2225   22.3224 H   0  0  0  0  0  0  0  0  0  0  0  0
  -25.7349   -3.2546   20.7833 H   0  0  0  0  0  0  0  0  0  0  0  0
  -26.2183   -3.2813   19.1177 H   0  0  0  0  0  0  0  0  0  0  0  0
  -23.3066   -3.4650   19.8971 H   0  0  0  0  0  0  0  0  0  0  0  0
  -23.1737   -1.1530   19.7399 H   0  0  0  0  0  0  0  0  0  0  0  0
  -26.0702   -1.1233   19.3497 H   0  0  0  0  0  0  0  0  0  0  0  0
  -24.8258   -0.4270   18.3193 H   0  0  0  0  0  0  0  0  0  0  0  0
  -24.2160    1.1159   20.2393 H   0  0  0  0  0  0  0  0  0  0  0  0
  -25.7236    1.4286   19.4330 H   0  0  0  0  0  0  0  0  0  0  0  0
  -25.8120    1.7395   21.8699 H   0  0  0  0  0  0  0  0  0  0  0  0
  -25.1311   -1.0807   21.9264 H   0  0  0  0  0  0  0  0  0  0  0  0
  -24.3494    0.1518   22.5846 H   0  0  0  0  0  0  0  0  0  0  0  0
  -29.9611    0.2011   23.4031 H   0  0  0  0  0  0  0  0  0  0  0  0
  -29.1091   -1.8976   19.7098 H   0  0  0  0  0  0  0  0  0  0  0  0
  -28.8763   -4.0769   18.7610 H   0  0  0  0  0  0  0  0  0  0  0  0
  -27.2993   -5.1963   17.5382 H   0  0  0  0  0  0  0  0  0  0  0  0
  -25.2866   -2.2830   14.4658 H   0  0  0  0  0  0  0  0  0  0  0  0
  -26.0258   -0.1054   13.5216 H   0  0  0  0  0  0  0  0  0  0  0  0
  -28.0600    0.9996   14.4133 H   0  0  0  0  0  0  0  0  0  0  0  0
  -29.2652    0.0348   16.3292 H   0  0  0  0  0  0  0  0  0  0  0  0
  -24.2840   -3.6204   17.4010 H   0  0  0  0  0  0  0  0  0  0  0  0
  -20.6567   -0.8051   15.7745 H   0  0  0  0  0  0  0  0  0  0  0  0
  -20.6632   -1.4306   13.0874 H   0  0  0  0  0  0  0  0  0  0  0  0
  -21.7378   -4.8303   12.7251 H   0  0  0  0  0  0  0  0  0  0  0  0
  -21.5414   -3.3414   11.7534 H   0  0  0  0  0  0  0  0  0  0  0  0
  -23.1637   -3.8013   12.3561 H   0  0  0  0  0  0  0  0  0  0  0  0
  1  2  1  0
  2  3  2  0
  3  4  1  0
  4  5  1  0
  4  6  2  0
  6  7  1  0
  7  8  1  0
  8  9  1  0
  9 10  1  0
 10 11  1  0
 11 12  1  0
 12 13  1  0
 13 14  1  0
 13 15  1  0
 15 16  1  0
 16 17  1  0
 17 18  2  0
 18 19  1  0
 19 20  1  0
 20 21  2  0
 20 22  1  0
 22 23  1  0
 23 24  2  0
 24 25  1  0
 25 26  1  0
 26 27  2  0
 26 28  1  0
 28 29  2  0
 29 30  1  0
 30 31  2  0
 31 32  1  0
 32 33  2  0
  9 34  1  0
 34 35  1  0
 35 36  2  0
 35 37  2  0
 35 38  1  0
 38 39  1  0
 39 40  2  0
 40 41  1  0
 41 42  1  0
 41 43  1  0
  7 44  2  0
 44  2  1  0
 19 15  2  0
 33 23  1  0
 43 38  2  0
 33 28  1  0
  1 45  1  0
  1 46  1  0
  1 47  1  0
  3 48  1  0
  5 49  1  0
  8 50  1  0
  8 51  1  0
  9 52  1  0
 10 53  1  0
 11 54  1  0
 11 55  1  0
 12 56  1  0
 12 57  1  0
 13 58  1  0
 14 59  1  0
 14 60  1  0
 17 61  1  0
 22 62  1  0
 24 63  1  0
 25 64  1  0
 29 65  1  0
 30 66  1  0
 31 67  1  0
 32 68  1  0
 34 69  1  0
 39 70  1  0
 40 71  1  0
 42 72  1  0
 42 73  1  0
 42 74  1  0
M  END
>  <Energy>  (988) 
22.117474766755603

>  <compound_id>  (988) 
3024

>  <target_id>  (988) 
1

>  <reference_id>  (988) 
192

>  <inspiration_ids>  (988) 
[192, 137]

>  <energy_score>  (988) 
-126.07423911335668

>  <distance_score>  (988) 
2.6407933226329914

>  <path>  (988) 
/opt/xchem-fragalysis-2/maxwin/BulkDock/SCRATCH/505736/C3024-P192/C3024-P192.minimised.mol

>  <scratch_subdir>  (988) 
/opt/xchem-fragalysis-2/maxwin/BulkDock/SCRATCH/505736/C3024-P192

>  <fragmenstein_runtime>  (988) 
11.452529668807983

>  <fragmenstein_outcome>  (988) 
too moved

>  <fragmenstein_mode>  (988) 
expansion

>  <fragmenstein_error>  (988) 


$$$$
C3024-P137
     RDKit          3D

 74 78  0  0  0  0  0  0  0  0999 V2000
  -26.0855   -5.3901   13.9857 C   0  0  0  0  0  0  0  0  0  0  0  0
  -26.0196   -5.3284   15.4805 C   0  0  0  0  0  0  0  0  0  0  0  0
  -26.5834   -6.3262   16.2416 C   0  0  0  0  0  0  0  0  0  0  0  0
  -26.4693   -6.1568   17.5924 C   0  0  0  0  0  0  0  0  0  0  0  0
  -27.0019   -7.0732   18.4400 O   0  0  0  0  0  0  0  0  0  0  0  0
  -25.8673   -5.1290   18.1979 N   0  0  0  0  0  0  0  0  0  0  0  0
  -25.3535   -4.1970   17.3757 C   0  0  0  0  0  0  0  0  0  0  0  0
  -24.6964   -2.9909   17.9912 C   0  0  0  0  0  0  0  0  0  0  0  0
  -23.4443   -3.3013   18.8362 C   0  0  0  0  0  0  0  0  0  0  0  0
  -23.5848   -4.3101   19.8914 N   0  0  0  0  0  0  0  0  0  0  0  0
  -24.5106   -3.9194   20.9735 C   0  0  0  0  0  0  0  0  0  0  0  0
  -23.9091   -2.9750   22.0213 C   0  0  0  0  0  0  0  0  0  0  0  0
  -24.9151   -2.3317   23.0087 C   0  0  0  0  0  0  0  0  0  0  0  0
  -25.8709   -3.2816   23.5723 N   0  0  0  0  0  0  0  0  0  0  0  0
  -25.5842   -1.1287   22.4192 C   0  0  0  0  0  0  0  0  0  0  0  0
  -25.0327    0.0890   22.7351 O   0  0  0  0  0  0  0  0  0  0  0  0
  -25.7215    0.9826   21.9786 C   0  0  0  0  0  0  0  0  0  0  0  0
  -26.6433    0.4623   21.2009 N   0  0  0  0  0  0  0  0  0  0  0  0
  -26.6124   -0.8878   21.5244 C   0  0  0  0  0  0  0  0  0  0  0  0
  -27.4428   -1.8862   20.8485 C   0  0  0  0  0  0  0  0  0  0  0  0
  -27.7173   -2.9157   21.3947 O   0  0  0  0  0  0  0  0  0  0  0  0
  -27.7150   -1.4300   19.5159 N   0  0  0  0  0  0  0  0  0  0  0  0
  -28.2872   -2.0675   18.4467 C   0  0  0  0  0  0  0  0  0  0  0  0
  -28.8661   -3.2737   18.5640 C   0  0  0  0  0  0  0  0  0  0  0  0
  -29.2622   -4.0066   17.4784 N   0  0  0  0  0  0  0  0  0  0  0  0
  -29.0599   -3.6306   16.1732 C   0  0  0  0  0  0  0  0  0  0  0  0
  -29.3667   -4.3592   15.2357 O   0  0  0  0  0  0  0  0  0  0  0  0
  -28.4584   -2.2909   15.9659 C   0  0  0  0  0  0  0  0  0  0  0  0
  -28.2510   -1.8353   14.6567 C   0  0  0  0  0  0  0  0  0  0  0  0
  -27.7194   -0.5693   14.4375 C   0  0  0  0  0  0  0  0  0  0  0  0
  -27.4066    0.2402   15.5236 C   0  0  0  0  0  0  0  0  0  0  0  0
  -27.6074   -0.2183   16.8314 C   0  0  0  0  0  0  0  0  0  0  0  0
  -28.1233   -1.5008   17.0807 C   0  0  0  0  0  0  0  0  0  0  0  0
  -22.3455   -3.7559   17.9734 N   0  0  0  0  0  0  0  0  0  0  0  0
  -21.3084   -2.5221   17.3969 S   0  0  0  0  0  0  0  0  0  0  0  0
  -21.8730   -1.2268   17.7007 O   0  0  0  0  0  0  0  0  0  0  0  0
  -19.9609   -2.9201   17.7250 O   0  0  0  0  0  0  0  0  0  0  0  0
  -21.3698   -2.6396   15.6601 C   0  0  0  0  0  0  0  0  0  0  0  0
  -20.5896   -1.8887   14.7592 C   0  0  0  0  0  0  0  0  0  0  0  0
  -20.9487   -2.3645   13.5188 C   0  0  0  0  0  0  0  0  0  0  0  0
  -21.8800   -3.3416   13.7380 N   0  0  0  0  0  0  0  0  0  0  0  0
  -22.5434   -4.1386   12.7348 C   0  0  0  0  0  0  0  0  0  0  0  0
  -22.1768   -3.5200   15.0389 N   0  0  0  0  0  0  0  0  0  0  0  0
  -25.3950   -4.2643   16.0329 N   0  0  0  0  0  0  0  0  0  0  0  0
  -25.4967   -6.2362   13.6180 H   0  0  0  0  0  0  0  0  0  0  0  0
  -27.1221   -5.5010   13.6527 H   0  0  0  0  0  0  0  0  0  0  0  0
  -25.6849   -4.4736   13.5410 H   0  0  0  0  0  0  0  0  0  0  0  0
  -27.0930   -7.1776   15.8149 H   0  0  0  0  0  0  0  0  0  0  0  0
  -26.7122   -6.7294   19.3040 H   0  0  0  0  0  0  0  0  0  0  0  0
  -25.4331   -2.4789   18.6114 H   0  0  0  0  0  0  0  0  0  0  0  0
  -24.4373   -2.2847   17.1925 H   0  0  0  0  0  0  0  0  0  0  0  0
  -23.1372   -2.3792   19.3388 H   0  0  0  0  0  0  0  0  0  0  0  0
  -24.0005   -5.1399   19.4611 H   0  0  0  0  0  0  0  0  0  0  0  0
  -25.4249   -3.5150   20.5468 H   0  0  0  0  0  0  0  0  0  0  0  0
  -24.8044   -4.8437   21.4867 H   0  0  0  0  0  0  0  0  0  0  0  0
  -23.1871   -3.5547   22.6101 H   0  0  0  0  0  0  0  0  0  0  0  0
  -23.3387   -2.1756   21.5333 H   0  0  0  0  0  0  0  0  0  0  0  0
  -24.3133   -1.9717   23.8546 H   0  0  0  0  0  0  0  0  0  0  0  0
  -26.4028   -2.8252   24.3123 H   0  0  0  0  0  0  0  0  0  0  0  0
  -26.5680   -3.5410   22.8654 H   0  0  0  0  0  0  0  0  0  0  0  0
  -25.4356    2.0209   22.0774 H   0  0  0  0  0  0  0  0  0  0  0  0
  -27.2584   -0.5338   19.3738 H   0  0  0  0  0  0  0  0  0  0  0  0
  -29.0094   -3.7709   19.5180 H   0  0  0  0  0  0  0  0  0  0  0  0
  -29.6506   -4.9332   17.6142 H   0  0  0  0  0  0  0  0  0  0  0  0
  -28.5107   -2.4674   13.8104 H   0  0  0  0  0  0  0  0  0  0  0  0
  -27.5591   -0.2125   13.4234 H   0  0  0  0  0  0  0  0  0  0  0  0
  -27.0009    1.2359   15.3561 H   0  0  0  0  0  0  0  0  0  0  0  0
  -27.3519    0.4638   17.6367 H   0  0  0  0  0  0  0  0  0  0  0  0
  -22.6820   -4.2429   17.1305 H   0  0  0  0  0  0  0  0  0  0  0  0
  -19.8606   -1.1246   14.9941 H   0  0  0  0  0  0  0  0  0  0  0  0
  -20.6197   -2.1011   12.5231 H   0  0  0  0  0  0  0  0  0  0  0  0
  -22.8928   -5.0710   13.1843 H   0  0  0  0  0  0  0  0  0  0  0  0
  -21.8343   -4.3575   11.9325 H   0  0  0  0  0  0  0  0  0  0  0  0
  -23.3896   -3.5636   12.3515 H   0  0  0  0  0  0  0  0  0  0  0  0
  1  2  1  0
  2  3  2  0
  3  4  1  0
  4  5  1  0
  4  6  2  0
  6  7  1  0
  7  8  1  0
  8  9  1  0
  9 10  1  0
 10 11  1  0
 11 12  1  0
 12 13  1  0
 13 14  1  0
 13 15  1  0
 15 16  1  0
 16 17  1  0
 17 18  2  0
 18 19  1  0
 19 20  1  0
 20 21  2  0
 20 22  1  0
 22 23  1  0
 23 24  2  0
 24 25  1  0
 25 26  1  0
 26 27  2  0
 26 28  1  0
 28 29  2  0
 29 30  1  0
 30 31  2  0
 31 32  1  0
 32 33  2  0
  9 34  1  0
 34 35  1  0
 35 36  2  0
 35 37  2  0
 35 38  1  0
 38 39  1  0
 39 40  2  0
 40 41  1  0
 41 42  1  0
 41 43  1  0
  7 44  2  0
 44  2  1  0
 19 15  2  0
 33 23  1  0
 43 38  2  0
 33 28  1  0
  1 45  1  0
  1 46  1  0
  1 47  1  0
  3 48  1  0
  5 49  1  0
  8 50  1  0
  8 51  1  0
  9 52  1  0
 10 53  1  0
 11 54  1  0
 11 55  1  0
 12 56  1  0
 12 57  1  0
 13 58  1  0
 14 59  1  0
 14 60  1  0
 17 61  1  0
 22 62  1  0
 24 63  1  0
 25 64  1  0
 29 65  1  0
 30 66  1  0
 31 67  1  0
 32 68  1  0
 34 69  1  0
 39 70  1  0
 40 71  1  0
 42 72  1  0
 42 73  1  0
 42 74  1  0
M  END
>  <Energy>  (989) 
-21.787250130348923

>  <compound_id>  (989) 
3024

>  <target_id>  (989) 
1

>  <reference_id>  (989) 
137

>  <inspiration_ids>  (989) 
[192, 137]

>  <energy_score>  (989) 
-140.64793098470037

>  <distance_score>  (989) 
2.8600131207121544

>  <path>  (989) 
/opt/xchem-fragalysis-2/maxwin/BulkDock/SCRATCH/505736/C3024-P137/C3024-P137.minimised.mol

>  <scratch_subdir>  (989) 
/opt/xchem-fragalysis-2/maxwin/BulkDock/SCRATCH/505736/C3024-P137

>  <fragmenstein_runtime>  (989) 
16.601393461227417

>  <fragmenstein_outcome>  (989) 
too moved

>  <fragmenstein_mode>  (989) 
expansion

>  <fragmenstein_error>  (989) 


$$$$
C3025-P192
     RDKit          3D

 45 48  0  0  0  0  0  0  0  0999 V2000
  -27.9766   -0.8684   14.7863 C   0  0  0  0  0  0  0  0  0  0  0  0
  -28.2987   -2.1828   15.4059 C   0  0  0  0  0  0  0  0  0  0  0  0
  -29.4551   -2.9240   15.2392 C   0  0  0  0  0  0  0  0  0  0  0  0
  -29.3017   -4.1011   15.9822 C   0  0  0  0  0  0  0  0  0  0  0  0
  -30.1832   -5.1083   16.0925 O   0  0  0  0  0  0  0  0  0  0  0  0
  -28.0784   -4.0951   16.5997 C   0  0  0  0  0  0  0  0  0  0  0  0
  -27.4889   -5.0297   17.4013 N   0  0  0  0  0  0  0  0  0  0  0  0
  -26.2993   -4.7566   17.8236 C   0  0  0  0  0  0  0  0  0  0  0  0
  -25.5448   -3.5105   17.5463 C   0  0  0  0  0  0  0  0  0  0  0  0
  -24.1517   -3.4194   18.0797 C   0  0  0  0  0  0  0  0  0  0  0  0
  -23.2604   -3.5466   16.9289 N   0  0  0  0  0  0  0  0  0  0  0  0
  -21.7256   -2.8762   17.0951 S   0  0  0  0  0  0  0  0  0  0  0  0
  -20.8561   -3.8875   17.6382 O   0  0  0  0  0  0  0  0  0  0  0  0
  -21.8734   -1.5933   17.7292 O   0  0  0  0  0  0  0  0  0  0  0  0
  -21.1632   -2.5586   15.4816 C   0  0  0  0  0  0  0  0  0  0  0  0
  -19.8536   -2.2102   15.1262 C   0  0  0  0  0  0  0  0  0  0  0  0
  -19.8886   -2.0388   13.7627 C   0  0  0  0  0  0  0  0  0  0  0  0
  -21.1671   -2.2928   13.3851 N   0  0  0  0  0  0  0  0  0  0  0  0
  -21.7000   -2.2620   12.0489 C   0  0  0  0  0  0  0  0  0  0  0  0
  -21.9773   -2.5956   14.4091 N   0  0  0  0  0  0  0  0  0  0  0  0
  -26.1848   -2.5922   16.7826 C   0  0  0  0  0  0  0  0  0  0  0  0
  -25.4711   -1.3481   16.5177 C   0  0  0  0  0  0  0  0  0  0  0  0
  -25.4885   -0.2898   17.4164 C   0  0  0  0  0  0  0  0  0  0  0  0
  -24.7021    0.8032   17.2836 N   0  0  0  0  0  0  0  0  0  0  0  0
  -23.8696    0.7920   16.2280 C   0  0  0  0  0  0  0  0  0  0  0  0
  -23.8504   -0.2601   15.3352 C   0  0  0  0  0  0  0  0  0  0  0  0
  -24.6449   -1.3503   15.4515 N   0  0  0  0  0  0  0  0  0  0  0  0
  -27.4541   -2.8882   16.2655 N   0  0  0  0  0  0  0  0  0  0  0  0
  -27.8364   -0.0965   15.5479 H   0  0  0  0  0  0  0  0  0  0  0  0
  -28.7974   -0.5370   14.1404 H   0  0  0  0  0  0  0  0  0  0  0  0
  -27.0833   -0.9367   14.1593 H   0  0  0  0  0  0  0  0  0  0  0  0
  -30.3025   -2.6358   14.6316 H   0  0  0  0  0  0  0  0  0  0  0  0
  -30.9760   -4.9196   15.5665 H   0  0  0  0  0  0  0  0  0  0  0  0
  -25.7891   -5.5023   18.4562 H   0  0  0  0  0  0  0  0  0  0  0  0
  -23.9312   -4.2214   18.7916 H   0  0  0  0  0  0  0  0  0  0  0  0
  -24.0213   -2.4756   18.6164 H   0  0  0  0  0  0  0  0  0  0  0  0
  -23.6377   -3.1474   16.0517 H   0  0  0  0  0  0  0  0  0  0  0  0
  -19.0043   -2.0818   15.7813 H   0  0  0  0  0  0  0  0  0  0  0  0
  -19.1223   -1.7499   13.0571 H   0  0  0  0  0  0  0  0  0  0  0  0
  -22.4838   -1.5016   12.0058 H   0  0  0  0  0  0  0  0  0  0  0  0
  -22.1094   -3.2483   11.8162 H   0  0  0  0  0  0  0  0  0  0  0  0
  -20.9031   -2.0155   11.3428 H   0  0  0  0  0  0  0  0  0  0  0  0
  -26.1269   -0.2960   18.2940 H   0  0  0  0  0  0  0  0  0  0  0  0
  -23.2163    1.6492   16.1182 H   0  0  0  0  0  0  0  0  0  0  0  0
  -23.1868   -0.2443   14.4787 H   0  0  0  0  0  0  0  0  0  0  0  0
  1  2  1  0
  2  3  2  0
  3  4  1  0
  4  5  1  0
  4  6  2  0
  6  7  1  0
  7  8  2  0
  8  9  1  0
  9 10  1  0
 10 11  1  0
 11 12  1  0
 12 13  2  0
 12 14  2  0
 12 15  1  0
 15 16  1  0
 16 17  2  0
 17 18  1  0
 18 19  1  0
 18 20  1  0
  9 21  2  0
 21 22  1  0
 22 23  2  0
 23 24  1  0
 24 25  2  0
 25 26  1  0
 26 27  2  0
 21 28  1  0
 28  2  1  0
 28  6  1  0
 20 15  2  0
 27 22  1  0
  1 29  1  0
  1 30  1  0
  1 31  1  0
  3 32  1  0
  5 33  1  0
  8 34  1  0
 10 35  1  0
 10 36  1  0
 11 37  1  0
 16 38  1  0
 17 39  1  0
 19 40  1  0
 19 41  1  0
 19 42  1  0
 23 43  1  0
 25 44  1  0
 26 45  1  0
M  END
>  <Energy>  (990) 
94.519636611888188

>  <compound_id>  (990) 
3025

>  <target_id>  (990) 
1

>  <reference_id>  (990) 
192

>  <inspiration_ids>  (990) 
[192, 151]

>  <energy_score>  (990) 
-77.76074946075926

>  <distance_score>  (990) 
1.9305558923276265

>  <path>  (990) 
/opt/xchem-fragalysis-2/maxwin/BulkDock/SCRATCH/505736/C3025-P192/C3025-P192.minimised.mol

>  <scratch_subdir>  (990) 
/opt/xchem-fragalysis-2/maxwin/BulkDock/SCRATCH/505736/C3025-P192

>  <fragmenstein_runtime>  (990) 
5.337170362472534

>  <fragmenstein_outcome>  (990) 
too moved

>  <fragmenstein_mode>  (990) 
expansion

>  <fragmenstein_error>  (990) 


$$$$
C3025-P151
     RDKit          3D

 45 48  0  0  0  0  0  0  0  0999 V2000
  -28.0702   -0.4840   15.0388 C   0  0  0  0  0  0  0  0  0  0  0  0
  -28.3326   -1.9062   15.3935 C   0  0  0  0  0  0  0  0  0  0  0  0
  -29.4803   -2.6270   15.1060 C   0  0  0  0  0  0  0  0  0  0  0  0
  -29.3315   -3.8818   15.6947 C   0  0  0  0  0  0  0  0  0  0  0  0
  -30.2141   -4.8920   15.6854 O   0  0  0  0  0  0  0  0  0  0  0  0
  -28.1193   -3.9528   16.3211 C   0  0  0  0  0  0  0  0  0  0  0  0
  -27.5805   -4.9841   17.0266 N   0  0  0  0  0  0  0  0  0  0  0  0
  -26.3882   -4.7826   17.4765 C   0  0  0  0  0  0  0  0  0  0  0  0
  -25.5592   -3.5538   17.2861 C   0  0  0  0  0  0  0  0  0  0  0  0
  -24.1934   -3.7170   17.8698 C   0  0  0  0  0  0  0  0  0  0  0  0
  -23.3956   -2.5293   17.7667 N   0  0  0  0  0  0  0  0  0  0  0  0
  -21.7833   -2.5917   17.3910 S   0  0  0  0  0  0  0  0  0  0  0  0
  -21.2509   -1.3233   17.8271 O   0  0  0  0  0  0  0  0  0  0  0  0
  -21.3084   -3.8728   17.8784 O   0  0  0  0  0  0  0  0  0  0  0  0
  -21.6008   -2.6505   15.6521 C   0  0  0  0  0  0  0  0  0  0  0  0
  -21.9572   -3.7678   14.8631 C   0  0  0  0  0  0  0  0  0  0  0  0
  -21.7183   -3.3843   13.5658 C   0  0  0  0  0  0  0  0  0  0  0  0
  -21.2752   -2.0986   13.6347 N   0  0  0  0  0  0  0  0  0  0  0  0
  -20.9519   -1.2471   12.5219 C   0  0  0  0  0  0  0  0  0  0  0  0
  -21.1693   -1.6303   14.8881 N   0  0  0  0  0  0  0  0  0  0  0  0
  -26.1606   -2.5430   16.6086 C   0  0  0  0  0  0  0  0  0  0  0  0
  -25.4120   -1.3062   16.3899 C   0  0  0  0  0  0  0  0  0  0  0  0
  -24.7692   -1.0493   15.1845 C   0  0  0  0  0  0  0  0  0  0  0  0
  -23.9662    0.0222   14.9978 N   0  0  0  0  0  0  0  0  0  0  0  0
  -23.7779    0.8023   16.0846 C   0  0  0  0  0  0  0  0  0  0  0  0
  -24.4022    0.5462   17.2939 C   0  0  0  0  0  0  0  0  0  0  0  0
  -25.2411   -0.5011   17.4750 N   0  0  0  0  0  0  0  0  0  0  0  0
  -27.4662   -2.7338   16.1153 N   0  0  0  0  0  0  0  0  0  0  0  0
  -28.9841   -0.0086   14.6646 H   0  0  0  0  0  0  0  0  0  0  0  0
  -27.3231   -0.4107   14.2443 H   0  0  0  0  0  0  0  0  0  0  0  0
  -27.7475    0.0940   15.9090 H   0  0  0  0  0  0  0  0  0  0  0  0
  -30.3401   -2.2670   14.5565 H   0  0  0  0  0  0  0  0  0  0  0  0
  -29.8280   -5.6264   16.2011 H   0  0  0  0  0  0  0  0  0  0  0  0
  -25.9166   -5.5943   18.0579 H   0  0  0  0  0  0  0  0  0  0  0  0
  -24.2638   -3.9972   18.9266 H   0  0  0  0  0  0  0  0  0  0  0  0
  -23.7134   -4.5329   17.3281 H   0  0  0  0  0  0  0  0  0  0  0  0
  -23.6804   -1.7082   18.3049 H   0  0  0  0  0  0  0  0  0  0  0  0
  -22.3285   -4.7265   15.1860 H   0  0  0  0  0  0  0  0  0  0  0  0
  -21.8356   -3.9098   12.6280 H   0  0  0  0  0  0  0  0  0  0  0  0
  -21.1020   -1.7911   11.5860 H   0  0  0  0  0  0  0  0  0  0  0  0
  -19.9053   -0.9447   12.6104 H   0  0  0  0  0  0  0  0  0  0  0  0
  -21.6070   -0.3728   12.5526 H   0  0  0  0  0  0  0  0  0  0  0  0
  -24.8718   -1.7077   14.3287 H   0  0  0  0  0  0  0  0  0  0  0  0
  -23.0998    1.6392   15.9598 H   0  0  0  0  0  0  0  0  0  0  0  0
  -24.2407    1.1862   18.1545 H   0  0  0  0  0  0  0  0  0  0  0  0
  1  2  1  0
  2  3  2  0
  3  4  1  0
  4  5  1  0
  4  6  2  0
  6  7  1  0
  7  8  2  0
  8  9  1  0
  9 10  1  0
 10 11  1  0
 11 12  1  0
 12 13  2  0
 12 14  2  0
 12 15  1  0
 15 16  1  0
 16 17  2  0
 17 18  1  0
 18 19  1  0
 18 20  1  0
  9 21  2  0
 21 22  1  0
 22 23  2  0
 23 24  1  0
 24 25  2  0
 25 26  1  0
 26 27  2  0
 21 28  1  0
 28  2  1  0
 28  6  1  0
 20 15  2  0
 27 22  1  0
  1 29  1  0
  1 30  1  0
  1 31  1  0
  3 32  1  0
  5 33  1  0
  8 34  1  0
 10 35  1  0
 10 36  1  0
 11 37  1  0
 16 38  1  0
 17 39  1  0
 19 40  1  0
 19 41  1  0
 19 42  1  0
 23 43  1  0
 25 44  1  0
 26 45  1  0
M  END
>  <Energy>  (991) 
93.28430521209971

>  <compound_id>  (991) 
3025

>  <target_id>  (991) 
1

>  <reference_id>  (991) 
151

>  <inspiration_ids>  (991) 
[192, 151]

>  <energy_score>  (991) 
-78.99608086054742

>  <distance_score>  (991) 
1.561208526836895

>  <path>  (991) 
/opt/xchem-fragalysis-2/maxwin/BulkDock/SCRATCH/505736/C3025-P151/C3025-P151.minimised.mol

>  <scratch_subdir>  (991) 
/opt/xchem-fragalysis-2/maxwin/BulkDock/SCRATCH/505736/C3025-P151

>  <fragmenstein_runtime>  (991) 
5.114675521850586

>  <fragmenstein_outcome>  (991) 
too moved

>  <fragmenstein_mode>  (991) 
expansion

>  <fragmenstein_error>  (991) 


$$$$
C3025-P192
     RDKit          3D

 45 48  0  0  0  0  0  0  0  0999 V2000
  -27.5110   -3.6085   12.7580 C   0  0  0  0  0  0  0  0  0  0  0  0
  -27.9991   -2.8888   13.9656 C   0  0  0  0  0  0  0  0  0  0  0  0
  -29.0847   -2.0376   14.0339 C   0  0  0  0  0  0  0  0  0  0  0  0
  -29.2127   -1.6478   15.3712 C   0  0  0  0  0  0  0  0  0  0  0  0
  -30.1574   -0.8489   15.8936 O   0  0  0  0  0  0  0  0  0  0  0  0
  -28.2273   -2.2427   16.1222 C   0  0  0  0  0  0  0  0  0  0  0  0
  -27.9575   -2.1879   17.4602 N   0  0  0  0  0  0  0  0  0  0  0  0
  -26.7971   -2.6195   17.8293 C   0  0  0  0  0  0  0  0  0  0  0  0
  -25.7766   -3.2277   16.9408 C   0  0  0  0  0  0  0  0  0  0  0  0
  -24.4604   -3.5587   17.5510 C   0  0  0  0  0  0  0  0  0  0  0  0
  -23.6410   -2.3456   17.5581 N   0  0  0  0  0  0  0  0  0  0  0  0
  -21.9673   -2.6165   17.5621 S   0  0  0  0  0  0  0  0  0  0  0  0
  -21.3617   -1.5313   18.2916 O   0  0  0  0  0  0  0  0  0  0  0  0
  -21.7440   -4.0084   17.9116 O   0  0  0  0  0  0  0  0  0  0  0  0
  -21.4139   -2.4442   15.9110 C   0  0  0  0  0  0  0  0  0  0  0  0
  -20.6112   -3.3828   15.2312 C   0  0  0  0  0  0  0  0  0  0  0  0
  -20.4526   -2.8689   13.9675 C   0  0  0  0  0  0  0  0  0  0  0  0
  -21.1474   -1.6957   13.9514 N   0  0  0  0  0  0  0  0  0  0  0  0
  -21.3389   -0.8393   12.8099 C   0  0  0  0  0  0  0  0  0  0  0  0
  -21.7937   -1.4332   15.1028 N   0  0  0  0  0  0  0  0  0  0  0  0
  -26.1683   -3.4208   15.6614 C   0  0  0  0  0  0  0  0  0  0  0  0
  -25.2463   -4.0879   14.7576 C   0  0  0  0  0  0  0  0  0  0  0  0
  -25.1457   -5.4768   14.7303 C   0  0  0  0  0  0  0  0  0  0  0  0
  -24.2009   -6.1209   14.0109 N   0  0  0  0  0  0  0  0  0  0  0  0
  -23.3739   -5.3180   13.3067 C   0  0  0  0  0  0  0  0  0  0  0  0
  -23.5376   -3.9502   13.2559 C   0  0  0  0  0  0  0  0  0  0  0  0
  -24.4526   -3.2988   14.0028 N   0  0  0  0  0  0  0  0  0  0  0  0
  -27.3979   -2.9138   15.2260 N   0  0  0  0  0  0  0  0  0  0  0  0
  -26.5983   -3.1509   12.3677 H   0  0  0  0  0  0  0  0  0  0  0  0
  -27.3390   -4.6678   12.9660 H   0  0  0  0  0  0  0  0  0  0  0  0
  -28.2593   -3.5624   11.9584 H   0  0  0  0  0  0  0  0  0  0  0  0
  -29.7267   -1.7688   13.2057 H   0  0  0  0  0  0  0  0  0  0  0  0
  -30.7606   -0.5428   15.1984 H   0  0  0  0  0  0  0  0  0  0  0  0
  -26.5299   -2.5558   18.8978 H   0  0  0  0  0  0  0  0  0  0  0  0
  -23.9737   -4.3592   16.9901 H   0  0  0  0  0  0  0  0  0  0  0  0
  -24.5828   -3.9227   18.5771 H   0  0  0  0  0  0  0  0  0  0  0  0
  -23.8308   -1.6910   16.7885 H   0  0  0  0  0  0  0  0  0  0  0  0
  -20.2018   -4.3053   15.6150 H   0  0  0  0  0  0  0  0  0  0  0  0
  -19.9219   -3.2335   13.1015 H   0  0  0  0  0  0  0  0  0  0  0  0
  -22.4111   -0.7391   12.6230 H   0  0  0  0  0  0  0  0  0  0  0  0
  -20.8984    0.1348   13.0363 H   0  0  0  0  0  0  0  0  0  0  0  0
  -20.8486   -1.2757   11.9361 H   0  0  0  0  0  0  0  0  0  0  0  0
  -25.8002   -6.1121   15.3188 H   0  0  0  0  0  0  0  0  0  0  0  0
  -22.5964   -5.8178   12.7392 H   0  0  0  0  0  0  0  0  0  0  0  0
  -22.9254   -3.3397   12.6077 H   0  0  0  0  0  0  0  0  0  0  0  0
  1  2  1  0
  2  3  2  0
  3  4  1  0
  4  5  1  0
  4  6  2  0
  6  7  1  0
  7  8  2  0
  8  9  1  0
  9 10  1  0
 10 11  1  0
 11 12  1  0
 12 13  2  0
 12 14  2  0
 12 15  1  0
 15 16  1  0
 16 17  2  0
 17 18  1  0
 18 19  1  0
 18 20  1  0
  9 21  2  0
 21 22  1  0
 22 23  2  0
 23 24  1  0
 24 25  2  0
 25 26  1  0
 26 27  2  0
 21 28  1  0
 28  2  1  0
 28  6  1  0
 20 15  2  0
 27 22  1  0
  1 29  1  0
  1 30  1  0
  1 31  1  0
  3 32  1  0
  5 33  1  0
  8 34  1  0
 10 35  1  0
 10 36  1  0
 11 37  1  0
 16 38  1  0
 17 39  1  0
 19 40  1  0
 19 41  1  0
 19 42  1  0
 23 43  1  0
 25 44  1  0
 26 45  1  0
M  END
>  <Energy>  (992) 
99.192568395245672

>  <compound_id>  (992) 
3025

>  <target_id>  (992) 
1

>  <reference_id>  (992) 
192

>  <inspiration_ids>  (992) 
[192, 170]

>  <energy_score>  (992) 
-58.6748471870101

>  <distance_score>  (992) 
1.9114940466682557

>  <path>  (992) 
/opt/xchem-fragalysis-2/maxwin/BulkDock/SCRATCH/505736/C3025-P192/C3025-P192.minimised.mol

>  <scratch_subdir>  (992) 
/opt/xchem-fragalysis-2/maxwin/BulkDock/SCRATCH/505736/C3025-P192

>  <fragmenstein_runtime>  (992) 
5.890524864196777

>  <fragmenstein_outcome>  (992) 
too moved

>  <fragmenstein_mode>  (992) 
expansion

>  <fragmenstein_error>  (992) 


$$$$
C3025-P170
     RDKit          3D

 45 48  0  0  0  0  0  0  0  0999 V2000
  -27.5407   -3.6089   12.7897 C   0  0  0  0  0  0  0  0  0  0  0  0
  -27.9988   -2.8837   14.0058 C   0  0  0  0  0  0  0  0  0  0  0  0
  -29.0772   -2.0252   14.0943 C   0  0  0  0  0  0  0  0  0  0  0  0
  -29.1753   -1.6318   15.4331 C   0  0  0  0  0  0  0  0  0  0  0  0
  -30.1041   -0.8260   15.9731 O   0  0  0  0  0  0  0  0  0  0  0  0
  -28.1786   -2.2316   16.1651 C   0  0  0  0  0  0  0  0  0  0  0  0
  -27.8818   -2.1775   17.4973 N   0  0  0  0  0  0  0  0  0  0  0  0
  -26.7164   -2.6147   17.8436 C   0  0  0  0  0  0  0  0  0  0  0  0
  -25.7150   -3.2273   16.9355 C   0  0  0  0  0  0  0  0  0  0  0  0
  -24.3881   -3.5615   17.5224 C   0  0  0  0  0  0  0  0  0  0  0  0
  -23.5989   -2.3315   17.6106 N   0  0  0  0  0  0  0  0  0  0  0  0
  -21.9191   -2.5577   17.5733 S   0  0  0  0  0  0  0  0  0  0  0  0
  -21.3230   -1.4127   18.2149 O   0  0  0  0  0  0  0  0  0  0  0  0
  -21.6403   -3.9210   17.9903 O   0  0  0  0  0  0  0  0  0  0  0  0
  -21.4239   -2.4488   15.8977 C   0  0  0  0  0  0  0  0  0  0  0  0
  -20.6603   -3.4153   15.2127 C   0  0  0  0  0  0  0  0  0  0  0  0
  -20.5276   -2.9263   13.9359 C   0  0  0  0  0  0  0  0  0  0  0  0
  -21.1956   -1.7376   13.9197 N   0  0  0  0  0  0  0  0  0  0  0  0
  -21.3891   -0.8870   12.7743 C   0  0  0  0  0  0  0  0  0  0  0  0
  -21.8057   -1.4449   15.0825 N   0  0  0  0  0  0  0  0  0  0  0  0
  -26.1356   -3.4217   15.6654 C   0  0  0  0  0  0  0  0  0  0  0  0
  -25.2425   -4.1050   14.7456 C   0  0  0  0  0  0  0  0  0  0  0  0
  -25.1621   -5.4953   14.7266 C   0  0  0  0  0  0  0  0  0  0  0  0
  -24.2474   -6.1571   13.9856 N   0  0  0  0  0  0  0  0  0  0  0  0
  -23.4277   -5.3710   13.2544 C   0  0  0  0  0  0  0  0  0  0  0  0
  -23.5724   -4.0014   13.1982 C   0  0  0  0  0  0  0  0  0  0  0  0
  -24.4583   -3.3322   13.9642 N   0  0  0  0  0  0  0  0  0  0  0  0
  -27.3715   -2.9091   15.2537 N   0  0  0  0  0  0  0  0  0  0  0  0
  -26.6336   -3.1580   12.3793 H   0  0  0  0  0  0  0  0  0  0  0  0
  -27.3714   -4.6689   12.9961 H   0  0  0  0  0  0  0  0  0  0  0  0
  -28.3053   -3.5594   12.0060 H   0  0  0  0  0  0  0  0  0  0  0  0
  -29.7344   -1.7541   13.2789 H   0  0  0  0  0  0  0  0  0  0  0  0
  -30.7199   -0.5179   15.2899 H   0  0  0  0  0  0  0  0  0  0  0  0
  -26.4282   -2.5531   18.9070 H   0  0  0  0  0  0  0  0  0  0  0  0
  -23.8734   -4.3064   16.9119 H   0  0  0  0  0  0  0  0  0  0  0  0
  -24.5019   -3.9949   18.5222 H   0  0  0  0  0  0  0  0  0  0  0  0
  -23.8144   -1.6297   16.8914 H   0  0  0  0  0  0  0  0  0  0  0  0
  -20.2555   -4.3383   15.5981 H   0  0  0  0  0  0  0  0  0  0  0  0
  -20.0338   -3.3186   13.0605 H   0  0  0  0  0  0  0  0  0  0  0  0
  -20.9327    0.0827   12.9875 H   0  0  0  0  0  0  0  0  0  0  0  0
  -20.9152   -1.3367   11.8981 H   0  0  0  0  0  0  0  0  0  0  0  0
  -22.4621   -0.7740   12.5997 H   0  0  0  0  0  0  0  0  0  0  0  0
  -25.8093   -6.1174   15.3368 H   0  0  0  0  0  0  0  0  0  0  0  0
  -22.6728   -5.8867   12.6707 H   0  0  0  0  0  0  0  0  0  0  0  0
  -22.9676   -3.4040   12.5307 H   0  0  0  0  0  0  0  0  0  0  0  0
  1  2  1  0
  2  3  2  0
  3  4  1  0
  4  5  1  0
  4  6  2  0
  6  7  1  0
  7  8  2  0
  8  9  1  0
  9 10  1  0
 10 11  1  0
 11 12  1  0
 12 13  2  0
 12 14  2  0
 12 15  1  0
 15 16  1  0
 16 17  2  0
 17 18  1  0
 18 19  1  0
 18 20  1  0
  9 21  2  0
 21 22  1  0
 22 23  2  0
 23 24  1  0
 24 25  2  0
 25 26  1  0
 26 27  2  0
 21 28  1  0
 28  2  1  0
 28  6  1  0
 20 15  2  0
 27 22  1  0
  1 29  1  0
  1 30  1  0
  1 31  1  0
  3 32  1  0
  5 33  1  0
  8 34  1  0
 10 35  1  0
 10 36  1  0
 11 37  1  0
 16 38  1  0
 17 39  1  0
 19 40  1  0
 19 41  1  0
 19 42  1  0
 23 43  1  0
 25 44  1  0
 26 45  1  0
M  END
>  <Energy>  (993) 
98.56878168489412

>  <compound_id>  (993) 
3025

>  <target_id>  (993) 
1

>  <reference_id>  (993) 
170

>  <inspiration_ids>  (993) 
[192, 170]

>  <energy_score>  (993) 
-59.298633897362144

>  <distance_score>  (993) 
1.9221780015904242

>  <path>  (993) 
/opt/xchem-fragalysis-2/maxwin/BulkDock/SCRATCH/505736/C3025-P170/C3025-P170.minimised.mol

>  <scratch_subdir>  (993) 
/opt/xchem-fragalysis-2/maxwin/BulkDock/SCRATCH/505736/C3025-P170

>  <fragmenstein_runtime>  (993) 
5.770291805267334

>  <fragmenstein_outcome>  (993) 
too moved

>  <fragmenstein_mode>  (993) 
expansion

>  <fragmenstein_error>  (993) 


$$$$
C3027-P192
     RDKit          3D

 47 50  0  0  0  0  0  0  0  0999 V2000
  -28.4427   -2.4162   14.8091 C   0  0  0  0  0  0  0  0  0  0  0  0
  -27.5770   -3.0383   15.7816 N   0  0  0  0  0  0  0  0  0  0  0  0
  -27.9131   -4.0348   16.6500 C   0  0  0  0  0  0  0  0  0  0  0  0
  -26.7568   -4.3708   17.3120 C   0  0  0  0  0  0  0  0  0  0  0  0
  -25.7764   -3.5033   16.7854 C   0  0  0  0  0  0  0  0  0  0  0  0
  -24.0888   -3.5794   17.1875 S   0  0  0  0  0  0  0  0  0  0  0  0
  -24.0000   -3.9511   18.5839 O   0  0  0  0  0  0  0  0  0  0  0  0
  -23.5067   -4.4152   16.1609 O   0  0  0  0  0  0  0  0  0  0  0  0
  -23.3677   -2.0675   17.0144 N   0  0  0  0  0  0  0  0  0  0  0  0
  -21.9244   -2.0706   17.3314 C   0  0  0  0  0  0  0  0  0  0  0  0
  -21.5558   -0.8345   18.1246 C   0  0  0  0  0  0  0  0  0  0  0  0
  -22.4622   -0.5815   19.3102 C   0  0  0  0  0  0  0  0  0  0  0  0
  -22.7271   -1.6840   20.1081 N   0  0  0  0  0  0  0  0  0  0  0  0
  -23.5768   -1.5597   21.0852 C   0  0  0  0  0  0  0  0  0  0  0  0
  -24.0070   -2.7567   21.8838 C   0  0  0  0  0  0  0  0  0  0  0  0
  -25.3430   -3.3079   21.3958 C   0  0  0  0  0  0  0  0  0  0  0  0
  -26.2388   -2.6101   21.1149 O   0  0  0  0  0  0  0  0  0  0  0  0
  -25.2260   -4.8617   21.3662 N   0  0  0  0  0  0  0  0  0  0  0  0
  -26.1610   -5.8133   21.0929 C   0  0  0  0  0  0  0  0  0  0  0  0
  -27.5285   -5.6677   20.7904 C   0  0  0  0  0  0  0  0  0  0  0  0
  -28.1153   -6.8413   20.5296 N   0  0  0  0  0  0  0  0  0  0  0  0
  -27.1145   -7.7302   20.6690 N   0  0  0  0  0  0  0  0  0  0  0  0
  -25.9269   -7.1620   21.0307 C   0  0  0  0  0  0  0  0  0  0  0  0
  -24.0908   -0.2746   21.3771 C   0  0  0  0  0  0  0  0  0  0  0  0
  -24.8484    0.1647   22.3529 N   0  0  0  0  0  0  0  0  0  0  0  0
  -24.9301    1.4981   22.0427 C   0  0  0  0  0  0  0  0  0  0  0  0
  -24.2387    1.8931   20.9668 N   0  0  0  0  0  0  0  0  0  0  0  0
  -23.7139    0.7325   20.5561 N   0  0  0  0  0  0  0  0  0  0  0  0
  -22.9004    0.6262   19.5018 N   0  0  0  0  0  0  0  0  0  0  0  0
  -26.2822   -2.6678   15.8552 N   0  0  0  0  0  0  0  0  0  0  0  0
  -28.0367   -2.6097   13.8131 H   0  0  0  0  0  0  0  0  0  0  0  0
  -28.4712   -1.3427   15.0114 H   0  0  0  0  0  0  0  0  0  0  0  0
  -29.4472   -2.8382   14.8920 H   0  0  0  0  0  0  0  0  0  0  0  0
  -28.9170   -4.4326   16.7119 H   0  0  0  0  0  0  0  0  0  0  0  0
  -26.6275   -5.1487   18.0509 H   0  0  0  0  0  0  0  0  0  0  0  0
  -23.6065   -1.6722   16.1012 H   0  0  0  0  0  0  0  0  0  0  0  0
  -21.6463   -2.9575   17.9117 H   0  0  0  0  0  0  0  0  0  0  0  0
  -21.3531   -2.1048   16.3974 H   0  0  0  0  0  0  0  0  0  0  0  0
  -20.5442   -0.9435   18.5154 H   0  0  0  0  0  0  0  0  0  0  0  0
  -21.5742    0.0473   17.4734 H   0  0  0  0  0  0  0  0  0  0  0  0
  -24.1208   -2.4838   22.9385 H   0  0  0  0  0  0  0  0  0  0  0  0
  -23.2126   -3.5031   21.8198 H   0  0  0  0  0  0  0  0  0  0  0  0
  -24.2792   -5.1343   21.5956 H   0  0  0  0  0  0  0  0  0  0  0  0
  -28.1130   -4.7576   20.7366 H   0  0  0  0  0  0  0  0  0  0  0  0
  -27.3120   -8.7107   20.4972 H   0  0  0  0  0  0  0  0  0  0  0  0
  -25.0407   -7.7617   21.1770 H   0  0  0  0  0  0  0  0  0  0  0  0
  -25.5065    2.2052   22.6269 H   0  0  0  0  0  0  0  0  0  0  0  0
  1  2  1  0
  2  3  1  0
  3  4  2  0
  4  5  1  0
  5  6  1  0
  6  7  2  0
  6  8  2  0
  6  9  1  0
  9 10  1  0
 10 11  1  0
 11 12  1  0
 12 13  1  0
 13 14  2  0
 14 15  1  0
 15 16  1  0
 16 17  2  0
 16 18  1  0
 18 19  1  0
 19 20  1  0
 20 21  2  0
 21 22  1  0
 22 23  1  0
 14 24  1  0
 24 25  2  0
 25 26  1  0
 26 27  2  0
 27 28  1  0
 28 29  1  0
  5 30  2  0
 30  2  1  0
 29 12  2  0
 23 19  2  0
 28 24  1  0
  1 31  1  0
  1 32  1  0
  1 33  1  0
  3 34  1  0
  4 35  1  0
  9 36  1  0
 10 37  1  0
 10 38  1  0
 11 39  1  0
 11 40  1  0
 15 41  1  0
 15 42  1  0
 18 43  1  0
 20 44  1  0
 22 45  1  0
 23 46  1  0
 26 47  1  0
M  END
>  <Energy>  (994) 
-10.675220060420717

>  <compound_id>  (994) 
3027

>  <target_id>  (994) 
1

>  <reference_id>  (994) 
192

>  <inspiration_ids>  (994) 
[192, 176]

>  <energy_score>  (994) 
-32.87420630061398

>  <distance_score>  (994) 
1.0931329135413401

>  <path>  (994) 
/opt/xchem-fragalysis-2/maxwin/BulkDock/SCRATCH/505736/C3027-P192/C3027-P192.minimised.mol

>  <scratch_subdir>  (994) 
/opt/xchem-fragalysis-2/maxwin/BulkDock/SCRATCH/505736/C3027-P192

>  <fragmenstein_runtime>  (994) 
5.048892021179199

>  <fragmenstein_outcome>  (994) 
too moved

>  <fragmenstein_mode>  (994) 
expansion

>  <fragmenstein_error>  (994) 


$$$$
C3027-P176
     RDKit          3D

 47 50  0  0  0  0  0  0  0  0999 V2000
  -28.3305   -2.4381   14.6496 C   0  0  0  0  0  0  0  0  0  0  0  0
  -27.5162   -2.9826   15.7092 N   0  0  0  0  0  0  0  0  0  0  0  0
  -27.9281   -3.8279   16.6969 C   0  0  0  0  0  0  0  0  0  0  0  0
  -26.8112   -4.1189   17.4419 C   0  0  0  0  0  0  0  0  0  0  0  0
  -25.7713   -3.3870   16.8300 C   0  0  0  0  0  0  0  0  0  0  0  0
  -24.1128   -3.4730   17.3226 S   0  0  0  0  0  0  0  0  0  0  0  0
  -24.0870   -3.3811   18.7689 O   0  0  0  0  0  0  0  0  0  0  0  0
  -23.5830   -4.6412   16.6582 O   0  0  0  0  0  0  0  0  0  0  0  0
  -23.2179   -2.1669   16.7516 N   0  0  0  0  0  0  0  0  0  0  0  0
  -21.7935   -2.2211   17.1422 C   0  0  0  0  0  0  0  0  0  0  0  0
  -21.2611   -0.8549   17.5229 C   0  0  0  0  0  0  0  0  0  0  0  0
  -22.2094   -0.0217   18.3620 C   0  0  0  0  0  0  0  0  0  0  0  0
  -22.7664   -0.6547   19.4655 N   0  0  0  0  0  0  0  0  0  0  0  0
  -23.6385    0.0010   20.1778 C   0  0  0  0  0  0  0  0  0  0  0  0
  -24.3674   -0.6613   21.3094 C   0  0  0  0  0  0  0  0  0  0  0  0
  -25.7381   -1.1662   20.8724 C   0  0  0  0  0  0  0  0  0  0  0  0
  -26.4983   -0.4735   20.3158 O   0  0  0  0  0  0  0  0  0  0  0  0
  -25.8659   -2.6518   21.3150 N   0  0  0  0  0  0  0  0  0  0  0  0
  -26.9259   -3.5058   21.2509 C   0  0  0  0  0  0  0  0  0  0  0  0
  -28.2016   -3.3128   20.6873 C   0  0  0  0  0  0  0  0  0  0  0  0
  -28.9707   -4.4027   20.7943 N   0  0  0  0  0  0  0  0  0  0  0  0
  -28.1822   -5.2799   21.4418 N   0  0  0  0  0  0  0  0  0  0  0  0
  -26.9433   -4.7881   21.7355 C   0  0  0  0  0  0  0  0  0  0  0  0
  -23.9017    1.3556   19.8645 C   0  0  0  0  0  0  0  0  0  0  0  0
  -24.6300    2.2680   20.4615 N   0  0  0  0  0  0  0  0  0  0  0  0
  -24.4323    3.3446   19.6354 C   0  0  0  0  0  0  0  0  0  0  0  0
  -23.6052    3.1457   18.6022 N   0  0  0  0  0  0  0  0  0  0  0  0
  -23.2760    1.8606   18.7792 N   0  0  0  0  0  0  0  0  0  0  0  0
  -22.4254    1.2040   17.9916 N   0  0  0  0  0  0  0  0  0  0  0  0
  -26.2002   -2.6867   15.7613 N   0  0  0  0  0  0  0  0  0  0  0  0
  -27.9273   -2.7827   13.6941 H   0  0  0  0  0  0  0  0  0  0  0  0
  -28.2923   -1.3478   14.7128 H   0  0  0  0  0  0  0  0  0  0  0  0
  -29.3607   -2.7829   14.7669 H   0  0  0  0  0  0  0  0  0  0  0  0
  -28.9559   -4.1528   16.7881 H   0  0  0  0  0  0  0  0  0  0  0  0
  -26.7503   -4.7736   18.3003 H   0  0  0  0  0  0  0  0  0  0  0  0
  -23.3920   -2.0266   15.7526 H   0  0  0  0  0  0  0  0  0  0  0  0
  -21.6423   -2.8917   17.9944 H   0  0  0  0  0  0  0  0  0  0  0  0
  -21.2112   -2.6330   16.3104 H   0  0  0  0  0  0  0  0  0  0  0  0
  -20.3290   -0.9748   18.0838 H   0  0  0  0  0  0  0  0  0  0  0  0
  -21.0250   -0.2923   16.6112 H   0  0  0  0  0  0  0  0  0  0  0  0
  -24.5234    0.0530   22.1257 H   0  0  0  0  0  0  0  0  0  0  0  0
  -23.7265   -1.4503   21.6989 H   0  0  0  0  0  0  0  0  0  0  0  0
  -25.0398   -2.9202   21.8535 H   0  0  0  0  0  0  0  0  0  0  0  0
  -28.5942   -2.4304   20.1976 H   0  0  0  0  0  0  0  0  0  0  0  0
  -28.5546   -6.2014   21.6463 H   0  0  0  0  0  0  0  0  0  0  0  0
  -26.2022   -5.3882   22.2433 H   0  0  0  0  0  0  0  0  0  0  0  0
  -24.9029    4.3066   19.7973 H   0  0  0  0  0  0  0  0  0  0  0  0
  1  2  1  0
  2  3  1  0
  3  4  2  0
  4  5  1  0
  5  6  1  0
  6  7  2  0
  6  8  2  0
  6  9  1  0
  9 10  1  0
 10 11  1  0
 11 12  1  0
 12 13  1  0
 13 14  2  0
 14 15  1  0
 15 16  1  0
 16 17  2  0
 16 18  1  0
 18 19  1  0
 19 20  1  0
 20 21  2  0
 21 22  1  0
 22 23  1  0
 14 24  1  0
 24 25  2  0
 25 26  1  0
 26 27  2  0
 27 28  1  0
 28 29  1  0
  5 30  2  0
 30  2  1  0
 29 12  2  0
 23 19  2  0
 28 24  1  0
  1 31  1  0
  1 32  1  0
  1 33  1  0
  3 34  1  0
  4 35  1  0
  9 36  1  0
 10 37  1  0
 10 38  1  0
 11 39  1  0
 11 40  1  0
 15 41  1  0
 15 42  1  0
 18 43  1  0
 20 44  1  0
 22 45  1  0
 23 46  1  0
 26 47  1  0
M  END
>  <Energy>  (995) 
-9.4110134099535774

>  <compound_id>  (995) 
3027

>  <target_id>  (995) 
1

>  <reference_id>  (995) 
176

>  <inspiration_ids>  (995) 
[192, 176]

>  <energy_score>  (995) 
-31.609999650146605

>  <distance_score>  (995) 
1.047769728624016

>  <path>  (995) 
/opt/xchem-fragalysis-2/maxwin/BulkDock/SCRATCH/505736/C3027-P176/C3027-P176.minimised.mol

>  <scratch_subdir>  (995) 
/opt/xchem-fragalysis-2/maxwin/BulkDock/SCRATCH/505736/C3027-P176

>  <fragmenstein_runtime>  (995) 
4.993143796920776

>  <fragmenstein_outcome>  (995) 
too moved

>  <fragmenstein_mode>  (995) 
expansion

>  <fragmenstein_error>  (995) 


$$$$
C3028-P193
     RDKit          3D

 51 54  0  0  0  0  0  0  0  0999 V2000
  -14.5538   -6.1896   42.3072 C   0  0  0  0  0  0  0  0  0  0  0  0
  -15.0711   -5.8289   41.1251 C   0  0  0  0  0  0  0  0  0  0  0  0
  -14.3120   -5.5329   39.8275 C   0  0  0  0  0  0  0  0  0  0  0  0
  -13.1637   -6.5415   39.5124 C   0  0  0  0  0  0  0  0  0  0  0  0
  -13.4991   -7.9932   39.8277 C   0  0  0  0  0  0  0  0  0  0  0  0
  -13.1093   -8.6168   40.9337 N   0  0  0  0  0  0  0  0  0  0  0  0
  -13.5751   -9.8885   40.8251 C   0  0  0  0  0  0  0  0  0  0  0  0
  -13.3862  -10.8237   41.7586 O   0  0  0  0  0  0  0  0  0  0  0  0
  -14.2398  -10.0962   39.6491 C   0  0  0  0  0  0  0  0  0  0  0  0
  -14.8891  -11.1894   39.0108 C   0  0  0  0  0  0  0  0  0  0  0  0
  -15.4610  -11.0017   37.8061 C   0  0  0  0  0  0  0  0  0  0  0  0
  -15.4363   -9.7009   37.1543 C   0  0  0  0  0  0  0  0  0  0  0  0
  -14.8231   -8.6694   37.7641 C   0  0  0  0  0  0  0  0  0  0  0  0
  -14.2128   -8.8626   39.0035 N   0  0  0  0  0  0  0  0  0  0  0  0
  -13.8999   -3.9823   39.7586 C   0  0  0  0  0  0  0  0  0  0  0  0
  -15.1997   -3.1108   39.9192 C   0  0  0  0  0  0  0  0  0  0  0  0
  -16.0084   -3.2071   38.7353 O   0  0  0  0  0  0  0  0  0  0  0  0
  -12.9144   -3.5697   40.7644 N   0  0  0  0  0  0  0  0  0  0  0  0
  -11.7480   -3.0583   40.0401 N   0  0  0  0  0  0  0  0  0  0  0  0
  -12.2625   -2.6157   38.7682 C   0  0  0  0  0  0  0  0  0  0  0  0
  -12.6028   -1.1382   38.6641 C   0  0  0  0  0  0  0  0  0  0  0  0
  -12.5612   -0.8793   37.1748 C   0  0  0  0  0  0  0  0  0  0  0  0
  -11.6457   -1.8971   36.6222 N   0  0  0  0  0  0  0  0  0  0  0  0
  -12.3467   -2.7273   35.6451 C   0  0  0  0  0  0  0  0  0  0  0  0
  -11.2308   -2.7562   37.7504 N   0  0  0  0  0  0  0  0  0  0  0  0
  -13.3079   -3.5807   38.4631 N   0  0  0  0  0  0  0  0  0  0  0  0
  -13.4894   -6.3398   42.4582 H   0  0  0  0  0  0  0  0  0  0  0  0
  -15.2009   -6.3808   43.1586 H   0  0  0  0  0  0  0  0  0  0  0  0
  -16.1549   -5.7239   41.0623 H   0  0  0  0  0  0  0  0  0  0  0  0
  -15.0527   -5.6961   39.0293 H   0  0  0  0  0  0  0  0  0  0  0  0
  -12.8769   -6.4678   38.4573 H   0  0  0  0  0  0  0  0  0  0  0  0
  -12.2730   -6.2763   40.0948 H   0  0  0  0  0  0  0  0  0  0  0  0
  -12.8860  -10.3844   42.4663 H   0  0  0  0  0  0  0  0  0  0  0  0
  -14.9100  -12.1553   39.5053 H   0  0  0  0  0  0  0  0  0  0  0  0
  -15.9645  -11.8185   37.2972 H   0  0  0  0  0  0  0  0  0  0  0  0
  -15.9193   -9.5831   36.1899 H   0  0  0  0  0  0  0  0  0  0  0  0
  -14.7811   -7.6799   37.3312 H   0  0  0  0  0  0  0  0  0  0  0  0
  -15.8100   -3.4020   40.7781 H   0  0  0  0  0  0  0  0  0  0  0  0
  -14.9705   -2.0519   40.0648 H   0  0  0  0  0  0  0  0  0  0  0  0
  -15.3556   -3.1342   38.0086 H   0  0  0  0  0  0  0  0  0  0  0  0
  -12.6843   -4.3393   41.3971 H   0  0  0  0  0  0  0  0  0  0  0  0
  -11.1086   -3.8278   39.8294 H   0  0  0  0  0  0  0  0  0  0  0  0
  -13.5653   -0.8564   39.0938 H   0  0  0  0  0  0  0  0  0  0  0  0
  -11.8353   -0.5300   39.1632 H   0  0  0  0  0  0  0  0  0  0  0  0
  -13.5721   -0.9435   36.7522 H   0  0  0  0  0  0  0  0  0  0  0  0
  -12.1825    0.1260   36.9620 H   0  0  0  0  0  0  0  0  0  0  0  0
  -11.7087   -3.5432   35.3054 H   0  0  0  0  0  0  0  0  0  0  0  0
  -13.2809   -3.1565   36.0166 H   0  0  0  0  0  0  0  0  0  0  0  0
  -12.6099   -2.1301   34.7677 H   0  0  0  0  0  0  0  0  0  0  0  0
  -10.3989   -2.3245   38.1620 H   0  0  0  0  0  0  0  0  0  0  0  0
  -12.7787   -4.3628   38.0924 H   0  0  0  0  0  0  0  0  0  0  0  0
  1  2  2  0
  2  3  1  0
  3  4  1  0
  4  5  1  0
  5  6  2  0
  6  7  1  0
  7  8  1  0
  7  9  2  0
  9 10  1  0
 10 11  2  0
 11 12  1  0
 12 13  2  0
 13 14  1  0
  3 15  1  0
 15 16  1  0
 16 17  1  0
 15 18  1  0
 18 19  1  0
 19 20  1  0
 20 21  1  0
 21 22  1  0
 22 23  1  0
 23 24  1  0
 23 25  1  0
 20 26  1  0
 14  5  1  0
 26 15  1  0
 14  9  1  0
 25 20  1  0
  1 27  1  0
  1 28  1  0
  2 29  1  0
  3 30  1  0
  4 31  1  0
  4 32  1  0
  8 33  1  0
 10 34  1  0
 11 35  1  0
 12 36  1  0
 13 37  1  0
 16 38  1  0
 16 39  1  0
 17 40  1  0
 18 41  1  0
 19 42  1  0
 21 43  1  0
 21 44  1  0
 22 45  1  0
 22 46  1  0
 24 47  1  0
 24 48  1  0
 24 49  1  0
 25 50  1  0
 26 51  1  0
M  END
>  <Energy>  (996) 
30.303056376880861

>  <compound_id>  (996) 
3028

>  <target_id>  (996) 
1

>  <reference_id>  (996) 
193

>  <inspiration_ids>  (996) 
[193, 7]

>  <energy_score>  (996) 
-101.97944375308356

>  <distance_score>  (996) 
1.4505975410022847

>  <path>  (996) 
/opt/xchem-fragalysis-2/maxwin/BulkDock/SCRATCH/505736/C3028-P193/C3028-P193.minimised.mol

>  <scratch_subdir>  (996) 
/opt/xchem-fragalysis-2/maxwin/BulkDock/SCRATCH/505736/C3028-P193

>  <fragmenstein_runtime>  (996) 
2.8875651359558105

>  <fragmenstein_outcome>  (996) 
too moved

>  <fragmenstein_mode>  (996) 
expansion

>  <fragmenstein_error>  (996) 


$$$$
C3028-P7
     RDKit          3D

 51 54  0  0  0  0  0  0  0  0999 V2000
  -13.6335   -6.0541   43.1851 C   0  0  0  0  0  0  0  0  0  0  0  0
  -14.5383   -5.5228   42.3525 C   0  0  0  0  0  0  0  0  0  0  0  0
  -14.3553   -5.2119   40.8701 C   0  0  0  0  0  0  0  0  0  0  0  0
  -13.5915   -6.2827   40.0377 C   0  0  0  0  0  0  0  0  0  0  0  0
  -13.8892   -7.7570   40.2689 C   0  0  0  0  0  0  0  0  0  0  0  0
  -13.4660   -8.4358   41.3259 N   0  0  0  0  0  0  0  0  0  0  0  0
  -13.7889   -9.7341   41.0989 C   0  0  0  0  0  0  0  0  0  0  0  0
  -13.5294  -10.7193   41.9602 O   0  0  0  0  0  0  0  0  0  0  0  0
  -14.3839   -9.9107   39.8823 C   0  0  0  0  0  0  0  0  0  0  0  0
  -14.8696  -11.0160   39.1297 C   0  0  0  0  0  0  0  0  0  0  0  0
  -15.4043  -10.7998   37.9134 C   0  0  0  0  0  0  0  0  0  0  0  0
  -15.5006   -9.4573   37.3617 C   0  0  0  0  0  0  0  0  0  0  0  0
  -15.0414   -8.4133   38.0781 C   0  0  0  0  0  0  0  0  0  0  0  0
  -14.4719   -8.6313   39.3389 N   0  0  0  0  0  0  0  0  0  0  0  0
  -13.7973   -3.6975   40.6727 C   0  0  0  0  0  0  0  0  0  0  0  0
  -14.9516   -2.7078   41.0744 C   0  0  0  0  0  0  0  0  0  0  0  0
  -15.9815   -2.7164   40.0740 O   0  0  0  0  0  0  0  0  0  0  0  0
  -12.5902   -3.4172   41.4550 N   0  0  0  0  0  0  0  0  0  0  0  0
  -11.9469   -2.2865   40.7926 N   0  0  0  0  0  0  0  0  0  0  0  0
  -12.3769   -2.2802   39.4158 C   0  0  0  0  0  0  0  0  0  0  0  0
  -12.8025   -0.9277   38.8787 C   0  0  0  0  0  0  0  0  0  0  0  0
  -12.6873   -1.1340   37.3883 C   0  0  0  0  0  0  0  0  0  0  0  0
  -11.5277   -2.0305   37.2259 N   0  0  0  0  0  0  0  0  0  0  0  0
  -11.8316   -3.0970   36.2803 C   0  0  0  0  0  0  0  0  0  0  0  0
  -11.2704   -2.6488   38.5354 N   0  0  0  0  0  0  0  0  0  0  0  0
  -13.3668   -3.3555   39.2926 N   0  0  0  0  0  0  0  0  0  0  0  0
  -12.6421   -6.3480   42.8555 H   0  0  0  0  0  0  0  0  0  0  0  0
  -13.8787   -6.2342   44.2273 H   0  0  0  0  0  0  0  0  0  0  0  0
  -15.5132   -5.2668   42.7671 H   0  0  0  0  0  0  0  0  0  0  0  0
  -15.3749   -5.2306   40.4546 H   0  0  0  0  0  0  0  0  0  0  0  0
  -13.8650   -6.0606   39.0072 H   0  0  0  0  0  0  0  0  0  0  0  0
  -12.5117   -6.1436   40.1627 H   0  0  0  0  0  0  0  0  0  0  0  0
  -13.0547  -10.3023   42.6982 H   0  0  0  0  0  0  0  0  0  0  0  0
  -14.7821  -12.0141   39.5482 H   0  0  0  0  0  0  0  0  0  0  0  0
  -15.7794  -11.6254   37.3178 H   0  0  0  0  0  0  0  0  0  0  0  0
  -15.9517   -9.3260   36.3846 H   0  0  0  0  0  0  0  0  0  0  0  0
  -15.1046   -7.3957   37.7197 H   0  0  0  0  0  0  0  0  0  0  0  0
  -15.4049   -2.9661   42.0359 H   0  0  0  0  0  0  0  0  0  0  0  0
  -14.6021   -1.6734   41.1615 H   0  0  0  0  0  0  0  0  0  0  0  0
  -15.4954   -2.6931   39.2262 H   0  0  0  0  0  0  0  0  0  0  0  0
  -11.9964   -4.2504   41.4544 H   0  0  0  0  0  0  0  0  0  0  0  0
  -10.9329   -2.3352   40.8638 H   0  0  0  0  0  0  0  0  0  0  0  0
  -13.8146   -0.6344   39.1739 H   0  0  0  0  0  0  0  0  0  0  0  0
  -12.1132   -0.1368   39.2041 H   0  0  0  0  0  0  0  0  0  0  0  0
  -13.6149   -1.5867   37.0205 H   0  0  0  0  0  0  0  0  0  0  0  0
  -12.5327   -0.1910   36.8551 H   0  0  0  0  0  0  0  0  0  0  0  0
  -11.9623   -2.6760   35.2785 H   0  0  0  0  0  0  0  0  0  0  0  0
  -11.0060   -3.8114   36.2279 H   0  0  0  0  0  0  0  0  0  0  0  0
  -12.7332   -3.6539   36.5553 H   0  0  0  0  0  0  0  0  0  0  0  0
  -10.4379   -2.1961   38.9165 H   0  0  0  0  0  0  0  0  0  0  0  0
  -12.7548   -4.1033   38.9978 H   0  0  0  0  0  0  0  0  0  0  0  0
  1  2  2  0
  2  3  1  0
  3  4  1  0
  4  5  1  0
  5  6  2  0
  6  7  1  0
  7  8  1  0
  7  9  2  0
  9 10  1  0
 10 11  2  0
 11 12  1  0
 12 13  2  0
 13 14  1  0
  3 15  1  0
 15 16  1  0
 16 17  1  0
 15 18  1  0
 18 19  1  0
 19 20  1  0
 20 21  1  0
 21 22  1  0
 22 23  1  0
 23 24  1  0
 23 25  1  0
 20 26  1  0
 14  5  1  0
 26 15  1  0
 14  9  1  0
 25 20  1  0
  1 27  1  0
  1 28  1  0
  2 29  1  0
  3 30  1  0
  4 31  1  0
  4 32  1  0
  8 33  1  0
 10 34  1  0
 11 35  1  0
 12 36  1  0
 13 37  1  0
 16 38  1  0
 16 39  1  0
 17 40  1  0
 18 41  1  0
 19 42  1  0
 21 43  1  0
 21 44  1  0
 22 45  1  0
 22 46  1  0
 24 47  1  0
 24 48  1  0
 24 49  1  0
 25 50  1  0
 26 51  1  0
M  END
>  <Energy>  (997) 
34.756550120551367

>  <compound_id>  (997) 
3028

>  <target_id>  (997) 
1

>  <reference_id>  (997) 
7

>  <inspiration_ids>  (997) 
[193, 7]

>  <energy_score>  (997) 
-97.5259500094133

>  <distance_score>  (997) 
1.551382845215924

>  <path>  (997) 
/opt/xchem-fragalysis-2/maxwin/BulkDock/SCRATCH/505736/C3028-P7/C3028-P7.minimised.mol

>  <scratch_subdir>  (997) 
/opt/xchem-fragalysis-2/maxwin/BulkDock/SCRATCH/505736/C3028-P7

>  <fragmenstein_runtime>  (997) 
2.6053009033203125

>  <fragmenstein_outcome>  (997) 
too moved

>  <fragmenstein_mode>  (997) 
expansion

>  <fragmenstein_error>  (997) 


$$$$
C3032-P194
     RDKit          3D

 46 50  0  0  0  0  0  0  0  0999 V2000
   -1.8117    0.2438   27.3406 C   0  0  0  0  0  0  0  0  0  0  0  0
   -1.4568    0.0425   28.7236 N   0  0  0  0  0  0  0  0  0  0  0  0
   -0.7927    0.9329   29.5160 C   0  0  0  0  0  0  0  0  0  0  0  0
   -0.6512    0.3242   30.7392 C   0  0  0  0  0  0  0  0  0  0  0  0
   -1.2642   -0.9402   30.5847 C   0  0  0  0  0  0  0  0  0  0  0  0
   -1.1355   -2.2134   31.7681 S   0  0  0  0  0  0  0  0  0  0  0  0
   -1.0338   -1.5610   33.0565 O   0  0  0  0  0  0  0  0  0  0  0  0
   -2.1691   -3.1964   31.5005 O   0  0  0  0  0  0  0  0  0  0  0  0
    0.3648   -2.9366   31.4638 N   0  0  0  0  0  0  0  0  0  0  0  0
    0.4871   -3.6154   30.1447 C   0  0  0  0  0  0  0  0  0  0  0  0
    1.3336   -4.8708   30.2885 C   0  0  0  0  0  0  0  0  0  0  0  0
    0.6345   -5.7758   31.2573 C   0  0  0  0  0  0  0  0  0  0  0  0
    0.5490   -5.4014   32.4963 N   0  0  0  0  0  0  0  0  0  0  0  0
   -0.0284   -6.2641   33.4092 C   0  0  0  0  0  0  0  0  0  0  0  0
    0.5104   -5.9575   34.7663 C   0  0  0  0  0  0  0  0  0  0  0  0
    1.5490   -6.6958   35.0749 N   0  0  0  0  0  0  0  0  0  0  0  0
    2.5087   -6.1586   35.9182 C   0  0  0  0  0  0  0  0  0  0  0  0
    3.4273   -6.8328   36.3664 O   0  0  0  0  0  0  0  0  0  0  0  0
    2.3640   -4.7305   36.0955 C   0  0  0  0  0  0  0  0  0  0  0  0
    3.5963   -3.6858   36.6048 S   0  0  0  0  0  0  0  0  0  0  0  0
    2.5408   -2.3322   36.5200 C   0  0  0  0  0  0  0  0  0  0  0  0
    1.2766   -2.6784   36.0827 C   0  0  0  0  0  0  0  0  0  0  0  0
    1.1968   -4.0645   35.8323 C   0  0  0  0  0  0  0  0  0  0  0  0
    0.1415   -4.7535   35.3485 N   0  0  0  0  0  0  0  0  0  0  0  0
   -0.7048   -7.3728   33.0778 C   0  0  0  0  0  0  0  0  0  0  0  0
   -0.6973   -7.7259   31.7361 N   0  0  0  0  0  0  0  0  0  0  0  0
   -1.1771   -8.7983   31.0759 N   0  0  0  0  0  0  0  0  0  0  0  0
   -0.4767   -8.7490   29.9348 C   0  0  0  0  0  0  0  0  0  0  0  0
    0.2353   -7.6230   29.7126 N   0  0  0  0  0  0  0  0  0  0  0  0
    0.0481   -6.9928   30.8388 C   0  0  0  0  0  0  0  0  0  0  0  0
   -1.7432   -1.1176   29.3424 N   0  0  0  0  0  0  0  0  0  0  0  0
   -2.1611   -0.6979   26.9175 H   0  0  0  0  0  0  0  0  0  0  0  0
   -0.9235    0.5965   26.8163 H   0  0  0  0  0  0  0  0  0  0  0  0
   -2.5971    1.0013   27.2930 H   0  0  0  0  0  0  0  0  0  0  0  0
   -0.4803    1.9002   29.1448 H   0  0  0  0  0  0  0  0  0  0  0  0
   -0.1404    0.7121   31.6095 H   0  0  0  0  0  0  0  0  0  0  0  0
    0.5924   -3.5384   32.2644 H   0  0  0  0  0  0  0  0  0  0  0  0
   -0.4934   -3.8874   29.7399 H   0  0  0  0  0  0  0  0  0  0  0  0
    0.9600   -2.9208   29.4426 H   0  0  0  0  0  0  0  0  0  0  0  0
    2.3237   -4.6273   30.6912 H   0  0  0  0  0  0  0  0  0  0  0  0
    1.4730   -5.3545   29.3182 H   0  0  0  0  0  0  0  0  0  0  0  0
    2.9039   -1.3482   36.7854 H   0  0  0  0  0  0  0  0  0  0  0  0
    0.4764   -1.9612   35.9428 H   0  0  0  0  0  0  0  0  0  0  0  0
   -0.6379   -4.2513   34.9229 H   0  0  0  0  0  0  0  0  0  0  0  0
   -1.1147   -8.0828   33.7802 H   0  0  0  0  0  0  0  0  0  0  0  0
   -0.5170   -9.5506   29.2157 H   0  0  0  0  0  0  0  0  0  0  0  0
  1  2  1  0
  2  3  1  0
  3  4  2  0
  4  5  1  0
  5  6  1  0
  6  7  2  0
  6  8  2  0
  6  9  1  0
  9 10  1  0
 10 11  1  0
 11 12  1  0
 12 13  2  0
 13 14  1  0
 14 15  1  0
 15 16  2  0
 16 17  1  0
 17 18  2  0
 17 19  1  0
 19 20  1  0
 20 21  1  0
 21 22  2  0
 22 23  1  0
 23 24  1  0
 14 25  2  0
 25 26  1  0
 26 27  1  0
 27 28  2  0
 28 29  1  0
 29 30  2  0
  5 31  2  0
 31  2  1  0
 30 12  1  0
 24 15  1  0
 30 26  1  0
 23 19  2  0
  1 32  1  0
  1 33  1  0
  1 34  1  0
  3 35  1  0
  4 36  1  0
  9 37  1  0
 10 38  1  0
 10 39  1  0
 11 40  1  0
 11 41  1  0
 21 42  1  0
 22 43  1  0
 24 44  1  0
 25 45  1  0
 28 46  1  0
M  END
>  <Energy>  (998) 
48.72293499562123

>  <compound_id>  (998) 
3032

>  <target_id>  (998) 
1

>  <reference_id>  (998) 
194

>  <inspiration_ids>  (998) 
[194, 41]

>  <energy_score>  (998) 
-60.574352382573295

>  <distance_score>  (998) 
0.8441682518509803

>  <path>  (998) 
/opt/xchem-fragalysis-2/maxwin/BulkDock/SCRATCH/505736/C3032-P194/C3032-P194.minimised.mol

>  <scratch_subdir>  (998) 
/opt/xchem-fragalysis-2/maxwin/BulkDock/SCRATCH/505736/C3032-P194

>  <fragmenstein_runtime>  (998) 
2.884931802749634

>  <fragmenstein_outcome>  (998) 
acceptable

>  <fragmenstein_mode>  (998) 
expansion

>  <fragmenstein_error>  (998) 


$$$$
C3032-P41
     RDKit          3D

 46 50  0  0  0  0  0  0  0  0999 V2000
   -1.8172    0.0127   27.1933 C   0  0  0  0  0  0  0  0  0  0  0  0
   -1.3926   -0.1187   28.5657 N   0  0  0  0  0  0  0  0  0  0  0  0
   -0.6322    0.7754   29.2630 C   0  0  0  0  0  0  0  0  0  0  0  0
   -0.4622    0.2377   30.5167 C   0  0  0  0  0  0  0  0  0  0  0  0
   -1.1513   -0.9961   30.4752 C   0  0  0  0  0  0  0  0  0  0  0  0
   -1.0392   -2.1958   31.7360 S   0  0  0  0  0  0  0  0  0  0  0  0
   -0.9644   -1.4687   32.9851 O   0  0  0  0  0  0  0  0  0  0  0  0
   -2.0547   -3.2073   31.5093 O   0  0  0  0  0  0  0  0  0  0  0  0
    0.4695   -2.9293   31.5000 N   0  0  0  0  0  0  0  0  0  0  0  0
    0.6221   -3.6474   30.2042 C   0  0  0  0  0  0  0  0  0  0  0  0
    1.4528   -4.9035   30.4093 C   0  0  0  0  0  0  0  0  0  0  0  0
    0.7047   -5.7797   31.3674 C   0  0  0  0  0  0  0  0  0  0  0  0
    0.6061   -5.4025   32.6033 N   0  0  0  0  0  0  0  0  0  0  0  0
   -0.0210   -6.2470   33.5027 C   0  0  0  0  0  0  0  0  0  0  0  0
    0.4900   -5.9367   34.8688 C   0  0  0  0  0  0  0  0  0  0  0  0
    1.5129   -6.6845   35.2062 N   0  0  0  0  0  0  0  0  0  0  0  0
    2.4657   -6.1414   36.0540 C   0  0  0  0  0  0  0  0  0  0  0  0
    3.3547   -6.8209   36.5516 O   0  0  0  0  0  0  0  0  0  0  0  0
    2.3500   -4.7049   36.1784 C   0  0  0  0  0  0  0  0  0  0  0  0
    3.5997   -3.6655   36.6534 S   0  0  0  0  0  0  0  0  0  0  0  0
    2.5686   -2.2971   36.5169 C   0  0  0  0  0  0  0  0  0  0  0  0
    1.2991   -2.6360   36.0892 C   0  0  0  0  0  0  0  0  0  0  0  0
    1.1955   -4.0283   35.8881 C   0  0  0  0  0  0  0  0  0  0  0  0
    0.1302   -4.7170   35.4252 N   0  0  0  0  0  0  0  0  0  0  0  0
   -0.7354   -7.3282   33.1561 C   0  0  0  0  0  0  0  0  0  0  0  0
   -0.7282   -7.6680   31.8103 N   0  0  0  0  0  0  0  0  0  0  0  0
   -1.2703   -8.6958   31.1226 N   0  0  0  0  0  0  0  0  0  0  0  0
   -0.5462   -8.6672   29.9913 C   0  0  0  0  0  0  0  0  0  0  0  0
    0.2605   -7.5997   29.8151 N   0  0  0  0  0  0  0  0  0  0  0  0
    0.0739   -6.9678   30.9373 C   0  0  0  0  0  0  0  0  0  0  0  0
   -1.6905   -1.2255   29.2678 N   0  0  0  0  0  0  0  0  0  0  0  0
   -2.2603   -0.9264   26.8562 H   0  0  0  0  0  0  0  0  0  0  0  0
   -0.9404    0.2581   26.5939 H   0  0  0  0  0  0  0  0  0  0  0  0
   -2.5464    0.8232   27.1345 H   0  0  0  0  0  0  0  0  0  0  0  0
   -0.2894    1.6994   28.8161 H   0  0  0  0  0  0  0  0  0  0  0  0
    0.1101    0.6511   31.3355 H   0  0  0  0  0  0  0  0  0  0  0  0
    0.6712   -3.5078   32.3242 H   0  0  0  0  0  0  0  0  0  0  0  0
   -0.3486   -3.9221   29.7783 H   0  0  0  0  0  0  0  0  0  0  0  0
    1.1218   -2.9769   29.4973 H   0  0  0  0  0  0  0  0  0  0  0  0
    2.4274   -4.6581   30.8472 H   0  0  0  0  0  0  0  0  0  0  0  0
    1.6289   -5.4103   29.4570 H   0  0  0  0  0  0  0  0  0  0  0  0
    2.9485   -1.3109   36.7481 H   0  0  0  0  0  0  0  0  0  0  0  0
    0.5122   -1.9098   35.9222 H   0  0  0  0  0  0  0  0  0  0  0  0
   -0.6368   -4.2125   34.9804 H   0  0  0  0  0  0  0  0  0  0  0  0
   -1.1903   -8.0232   33.8465 H   0  0  0  0  0  0  0  0  0  0  0  0
   -0.6098   -9.4611   29.2589 H   0  0  0  0  0  0  0  0  0  0  0  0
  1  2  1  0
  2  3  1  0
  3  4  2  0
  4  5  1  0
  5  6  1  0
  6  7  2  0
  6  8  2  0
  6  9  1  0
  9 10  1  0
 10 11  1  0
 11 12  1  0
 12 13  2  0
 13 14  1  0
 14 15  1  0
 15 16  2  0
 16 17  1  0
 17 18  2  0
 17 19  1  0
 19 20  1  0
 20 21  1  0
 21 22  2  0
 22 23  1  0
 23 24  1  0
 14 25  2  0
 25 26  1  0
 26 27  1  0
 27 28  2  0
 28 29  1  0
 29 30  2  0
  5 31  2  0
 31  2  1  0
 30 12  1  0
 24 15  1  0
 30 26  1  0
 23 19  2  0
  1 32  1  0
  1 33  1  0
  1 34  1  0
  3 35  1  0
  4 36  1  0
  9 37  1  0
 10 38  1  0
 10 39  1  0
 11 40  1  0
 11 41  1  0
 21 42  1  0
 22 43  1  0
 24 44  1  0
 25 45  1  0
 28 46  1  0
M  END
>  <Energy>  (999) 
50.153089903062813

>  <compound_id>  (999) 
3032

>  <target_id>  (999) 
1

>  <reference_id>  (999) 
41

>  <inspiration_ids>  (999) 
[194, 41]

>  <energy_score>  (999) 
-59.14419747513233

>  <distance_score>  (999) 
0.8517140631835525

>  <path>  (999) 
/opt/xchem-fragalysis-2/maxwin/BulkDock/SCRATCH/505736/C3032-P41/C3032-P41.minimised.mol

>  <scratch_subdir>  (999) 
/opt/xchem-fragalysis-2/maxwin/BulkDock/SCRATCH/505736/C3032-P41

>  <fragmenstein_runtime>  (999) 
2.5417380332946777

>  <fragmenstein_outcome>  (999) 
acceptable

>  <fragmenstein_mode>  (999) 
expansion

>  <fragmenstein_error>  (999) 


$$$$
C3033-P194
     RDKit          3D

 49 53  0  0  0  0  0  0  0  0999 V2000
    2.7350   -2.2941   28.0282 C   0  0  0  0  0  0  0  0  0  0  0  0
    1.7121   -1.9032   28.9536 N   0  0  0  0  0  0  0  0  0  0  0  0
    1.1255   -0.1921   29.1693 C   0  0  0  0  0  0  0  0  0  0  0  0
   -0.3202   -0.3279   30.5295 C   0  0  0  0  0  0  0  0  0  0  0  0
   -0.3643   -2.2174   30.9426 C   0  0  0  0  0  0  0  0  0  0  0  0
   -1.5101   -2.8993   32.0643 S   0  0  0  0  0  0  0  0  0  0  0  0
   -2.7329   -3.0427   31.3101 O   0  0  0  0  0  0  0  0  0  0  0  0
   -1.4366   -2.0196   33.2071 O   0  0  0  0  0  0  0  0  0  0  0  0
   -1.1164   -4.4497   32.6040 N   0  0  0  0  0  0  0  0  0  0  0  0
   -0.7993   -5.5375   31.6448 C   0  0  0  0  0  0  0  0  0  0  0  0
    0.3927   -6.3870   32.1165 C   0  0  0  0  0  0  0  0  0  0  0  0
    1.3290   -5.4093   32.7369 C   0  0  0  0  0  0  0  0  0  0  0  0
    1.8497   -4.5067   31.9602 N   0  0  0  0  0  0  0  0  0  0  0  0
    2.1061   -3.2576   32.5074 C   0  0  0  0  0  0  0  0  0  0  0  0
    2.4015   -2.1829   31.4823 C   0  0  0  0  0  0  0  0  0  0  0  0
    1.2897   -1.0996   30.7129 C   0  0  0  0  0  0  0  0  0  0  0  0
    1.5488    0.3908   31.1415 N   0  0  0  0  0  0  0  0  0  0  0  0
    0.6685    1.6660   30.2591 C   0  0  0  0  0  0  0  0  0  0  0  0
    0.9431    3.0387   30.4147 C   0  0  0  0  0  0  0  0  0  0  0  0
    0.2360    3.8011   29.4972 C   0  0  0  0  0  0  0  0  0  0  0  0
   -0.7744    2.9338   28.3856 S   0  0  0  0  0  0  0  0  0  0  0  0
   -0.3825    1.4417   29.0937 C   0  0  0  0  0  0  0  0  0  0  0  0
   -0.9143   -0.1265   28.4504 C   0  0  0  0  0  0  0  0  0  0  0  0
   -1.7719   -0.2853   27.5913 O   0  0  0  0  0  0  0  0  0  0  0  0
   -0.0895   -1.4492   29.2115 N   0  0  0  0  0  0  0  0  0  0  0  0
    2.0869   -3.0445   33.8407 C   0  0  0  0  0  0  0  0  0  0  0  0
    1.7531   -4.0930   34.6864 N   0  0  0  0  0  0  0  0  0  0  0  0
    1.6732   -4.1738   36.0307 N   0  0  0  0  0  0  0  0  0  0  0  0
    1.2633   -5.4318   36.2194 C   0  0  0  0  0  0  0  0  0  0  0  0
    1.0712   -6.1723   35.0865 N   0  0  0  0  0  0  0  0  0  0  0  0
    1.3879   -5.3020   34.1577 C   0  0  0  0  0  0  0  0  0  0  0  0
    0.7274   -3.0398   29.9584 N   0  0  0  0  0  0  0  0  0  0  0  0
    3.6606   -2.4497   28.5842 H   0  0  0  0  0  0  0  0  0  0  0  0
    2.4300   -3.2249   27.5518 H   0  0  0  0  0  0  0  0  0  0  0  0
    2.8760   -1.4894   27.3075 H   0  0  0  0  0  0  0  0  0  0  0  0
    1.7190    0.5137   28.5737 H   0  0  0  0  0  0  0  0  0  0  0  0
   -0.9748    0.3581   31.0827 H   0  0  0  0  0  0  0  0  0  0  0  0
   -1.7151   -4.6963   33.4064 H   0  0  0  0  0  0  0  0  0  0  0  0
   -1.6505   -6.2094   31.5477 H   0  0  0  0  0  0  0  0  0  0  0  0
   -0.5829   -5.1309   30.6548 H   0  0  0  0  0  0  0  0  0  0  0  0
    0.8576   -6.8922   31.2663 H   0  0  0  0  0  0  0  0  0  0  0  0
    0.0713   -7.1404   32.8422 H   0  0  0  0  0  0  0  0  0  0  0  0
    3.0541   -1.4626   32.0043 H   0  0  0  0  0  0  0  0  0  0  0  0
    3.0894   -2.6027   30.7398 H   0  0  0  0  0  0  0  0  0  0  0  0
    1.6338    3.4566   31.1343 H   0  0  0  0  0  0  0  0  0  0  0  0
    0.2568    4.8792   29.4052 H   0  0  0  0  0  0  0  0  0  0  0  0
   -0.3127   -2.3899   28.8569 H   0  0  0  0  0  0  0  0  0  0  0  0
    2.2956   -2.0929   34.3112 H   0  0  0  0  0  0  0  0  0  0  0  0
    1.0971   -5.8213   37.2172 H   0  0  0  0  0  0  0  0  0  0  0  0
  1  2  1  0
  2  3  1  0
  3  4  2  0
  4  5  1  0
  5  6  1  0
  6  7  2  0
  6  8  2  0
  6  9  1  0
  9 10  1  0
 10 11  1  0
 11 12  1  0
 12 13  2  0
 13 14  1  0
 14 15  1  0
 15 16  1  0
 16 17  2  0
 17 18  1  0
 18 19  1  0
 19 20  2  0
 20 21  1  0
 21 22  1  0
 22 23  1  0
 23 24  2  0
 23 25  1  0
 14 26  2  0
 26 27  1  0
 27 28  1  0
 28 29  2  0
 29 30  1  0
 30 31  2  0
  5 32  2  0
 32  2  1  0
 31 12  1  0
 25 16  1  0
 31 27  1  0
 22 18  2  0
  1 33  1  0
  1 34  1  0
  1 35  1  0
  3 36  1  0
  4 37  1  0
  9 38  1  0
 10 39  1  0
 10 40  1  0
 11 41  1  0
 11 42  1  0
 15 43  1  0
 15 44  1  0
 19 45  1  0
 20 46  1  0
 25 47  1  0
 26 48  1  0
 29 49  1  0
M  END
>  <Energy>  (1000) 
1575.2137417173244

>  <compound_id>  (1000) 
3033

>  <target_id>  (1000) 
1

>  <reference_id>  (1000) 
194

>  <inspiration_ids>  (1000) 
[194, 44]

>  <energy_score>  (1000) 
1487.6287883131909

>  <distance_score>  (1000) 
3.775887122401577

>  <path>  (1000) 
/opt/xchem-fragalysis-2/maxwin/BulkDock/SCRATCH/505736/C3033-P194/C3033-P194.minimised.mol

>  <scratch_subdir>  (1000) 
/opt/xchem-fragalysis-2/maxwin/BulkDock/SCRATCH/505736/C3033-P194

>  <fragmenstein_runtime>  (1000) 
9.927415609359741

>  <fragmenstein_outcome>  (1000) 
too moved

>  <fragmenstein_mode>  (1000) 
expansion

>  <fragmenstein_error>  (1000) 


$$$$
C3033-P44
     RDKit          3D

 49 53  0  0  0  0  0  0  0  0999 V2000
    1.3641   -0.0539   27.3965 C   0  0  0  0  0  0  0  0  0  0  0  0
    1.6079   -0.0358   28.8145 N   0  0  0  0  0  0  0  0  0  0  0  0
    2.0749    1.0092   29.5591 C   0  0  0  0  0  0  0  0  0  0  0  0
    2.0012    0.6143   30.8757 C   0  0  0  0  0  0  0  0  0  0  0  0
    1.5703   -0.7155   30.8057 C   0  0  0  0  0  0  0  0  0  0  0  0
    1.3337   -1.8095   32.1268 S   0  0  0  0  0  0  0  0  0  0  0  0
    0.0911   -1.4224   32.7525 O   0  0  0  0  0  0  0  0  0  0  0  0
    2.5580   -1.8994   32.8637 O   0  0  0  0  0  0  0  0  0  0  0  0
    1.1506   -3.2299   31.3135 N   0  0  0  0  0  0  0  0  0  0  0  0
    2.1771   -4.2177   30.9957 C   0  0  0  0  0  0  0  0  0  0  0  0
    1.4767   -5.3973   30.2599 C   0  0  0  0  0  0  0  0  0  0  0  0
    0.1090   -5.5083   30.8852 C   0  0  0  0  0  0  0  0  0  0  0  0
   -0.7572   -4.5725   30.5541 N   0  0  0  0  0  0  0  0  0  0  0  0
   -1.3820   -3.9247   31.6192 C   0  0  0  0  0  0  0  0  0  0  0  0
   -2.0672   -2.5815   31.3468 C   0  0  0  0  0  0  0  0  0  0  0  0
   -1.7594   -1.5175   30.1259 C   0  0  0  0  0  0  0  0  0  0  0  0
   -1.4477   -0.2590   30.3675 N   0  0  0  0  0  0  0  0  0  0  0  0
   -1.3916    0.6045   29.2183 C   0  0  0  0  0  0  0  0  0  0  0  0
   -0.7976    1.8962   29.1362 C   0  0  0  0  0  0  0  0  0  0  0  0
   -1.0798    2.5318   27.9403 C   0  0  0  0  0  0  0  0  0  0  0  0
   -1.9403    1.5067   26.8706 S   0  0  0  0  0  0  0  0  0  0  0  0
   -1.8584    0.2316   27.9954 C   0  0  0  0  0  0  0  0  0  0  0  0
   -2.2189   -1.1249   27.7506 C   0  0  0  0  0  0  0  0  0  0  0  0
   -2.7393   -1.5463   26.7286 O   0  0  0  0  0  0  0  0  0  0  0  0
   -1.9896   -1.9718   28.8364 N   0  0  0  0  0  0  0  0  0  0  0  0
   -1.3001   -4.4277   32.8734 C   0  0  0  0  0  0  0  0  0  0  0  0
   -0.7870   -5.6922   33.0711 N   0  0  0  0  0  0  0  0  0  0  0  0
   -0.8729   -6.5334   34.1130 N   0  0  0  0  0  0  0  0  0  0  0  0
   -0.0859   -7.5334   33.7228 C   0  0  0  0  0  0  0  0  0  0  0  0
    0.4668   -7.4110   32.4765 N   0  0  0  0  0  0  0  0  0  0  0  0
   -0.0561   -6.2769   32.0783 C   0  0  0  0  0  0  0  0  0  0  0  0
    1.3622   -1.1365   29.5369 N   0  0  0  0  0  0  0  0  0  0  0  0
    2.2743   -0.4310   26.9237 H   0  0  0  0  0  0  0  0  0  0  0  0
    0.5302   -0.7196   27.1936 H   0  0  0  0  0  0  0  0  0  0  0  0
    1.1720    0.9603   27.0465 H   0  0  0  0  0  0  0  0  0  0  0  0
    2.3681    1.9451   29.1029 H   0  0  0  0  0  0  0  0  0  0  0  0
    2.2531    1.1916   31.7537 H   0  0  0  0  0  0  0  0  0  0  0  0
    0.6476   -2.9812   30.4452 H   0  0  0  0  0  0  0  0  0  0  0  0
    2.9549   -3.7899   30.3570 H   0  0  0  0  0  0  0  0  0  0  0  0
    2.6307   -4.5816   31.9233 H   0  0  0  0  0  0  0  0  0  0  0  0
    2.0508   -6.3171   30.3490 H   0  0  0  0  0  0  0  0  0  0  0  0
    1.3671   -5.1449   29.2013 H   0  0  0  0  0  0  0  0  0  0  0  0
   -2.1056   -1.9829   32.2645 H   0  0  0  0  0  0  0  0  0  0  0  0
   -3.1228   -2.8285   31.1738 H   0  0  0  0  0  0  0  0  0  0  0  0
   -0.2697    2.3886   29.9433 H   0  0  0  0  0  0  0  0  0  0  0  0
   -0.8363    3.5458   27.6516 H   0  0  0  0  0  0  0  0  0  0  0  0
   -2.2730   -2.9277   28.6341 H   0  0  0  0  0  0  0  0  0  0  0  0
   -1.6732   -3.9131   33.7458 H   0  0  0  0  0  0  0  0  0  0  0  0
    0.0830   -8.3666   34.3876 H   0  0  0  0  0  0  0  0  0  0  0  0
  1  2  1  0
  2  3  1  0
  3  4  2  0
  4  5  1  0
  5  6  1  0
  6  7  2  0
  6  8  2  0
  6  9  1  0
  9 10  1  0
 10 11  1  0
 11 12  1  0
 12 13  2  0
 13 14  1  0
 14 15  1  0
 15 16  1  0
 16 17  2  0
 17 18  1  0
 18 19  1  0
 19 20  2  0
 20 21  1  0
 21 22  1  0
 22 23  1  0
 23 24  2  0
 23 25  1  0
 14 26  2  0
 26 27  1  0
 27 28  1  0
 28 29  2  0
 29 30  1  0
 30 31  2  0
  5 32  2  0
 32  2  1  0
 31 12  1  0
 25 16  1  0
 31 27  1  0
 22 18  2  0
  1 33  1  0
  1 34  1  0
  1 35  1  0
  3 36  1  0
  4 37  1  0
  9 38  1  0
 10 39  1  0
 10 40  1  0
 11 41  1  0
 11 42  1  0
 15 43  1  0
 15 44  1  0
 19 45  1  0
 20 46  1  0
 25 47  1  0
 26 48  1  0
 29 49  1  0
M  END
>  <Energy>  (1001) 
80.129982705324551

>  <compound_id>  (1001) 
3033

>  <target_id>  (1001) 
1

>  <reference_id>  (1001) 
44

>  <inspiration_ids>  (1001) 
[194, 44]

>  <energy_score>  (1001) 
13.144972353952369

>  <distance_score>  (1001) 
3.001614112024947

>  <path>  (1001) 
/opt/xchem-fragalysis-2/maxwin/BulkDock/SCRATCH/505736/C3033-P44/C3033-P44.minimised.mol

>  <scratch_subdir>  (1001) 
/opt/xchem-fragalysis-2/maxwin/BulkDock/SCRATCH/505736/C3033-P44

>  <fragmenstein_runtime>  (1001) 
5.404376745223999

>  <fragmenstein_outcome>  (1001) 
too moved

>  <fragmenstein_mode>  (1001) 
expansion

>  <fragmenstein_error>  (1001) 


$$$$
C3034-P194
     RDKit          3D

 71 75  0  0  0  0  0  0  0  0999 V2000
    0.0347   -6.0348   34.9573 C   0  0  0  0  0  0  0  0  0  0  0  0
    0.1009   -6.3440   33.4884 C   0  0  0  0  0  0  0  0  0  0  0  0
   -0.6421   -7.3848   32.9813 C   0  0  0  0  0  0  0  0  0  0  0  0
   -0.4796   -7.6133   31.6449 C   0  0  0  0  0  0  0  0  0  0  0  0
   -1.1122   -8.6603   31.0517 O   0  0  0  0  0  0  0  0  0  0  0  0
    0.2914   -6.8956   30.8185 N   0  0  0  0  0  0  0  0  0  0  0  0
    0.9068   -5.8192   31.3668 C   0  0  0  0  0  0  0  0  0  0  0  0
    1.1306   -4.6315   30.3805 C   0  0  0  0  0  0  0  0  0  0  0  0
   -0.2197   -3.8948   30.5118 C   0  0  0  0  0  0  0  0  0  0  0  0
   -0.1963   -3.0553   31.7497 N   0  0  0  0  0  0  0  0  0  0  0  0
   -1.5673   -2.1021   31.9454 S   0  0  0  0  0  0  0  0  0  0  0  0
   -1.4240   -1.3850   33.1920 O   0  0  0  0  0  0  0  0  0  0  0  0
   -2.7168   -2.9380   31.6584 O   0  0  0  0  0  0  0  0  0  0  0  0
   -1.4646   -0.8908   30.6916 C   0  0  0  0  0  0  0  0  0  0  0  0
   -0.7622    0.3274   30.8303 C   0  0  0  0  0  0  0  0  0  0  0  0
   -0.7806    0.8843   29.5750 C   0  0  0  0  0  0  0  0  0  0  0  0
   -1.4520    0.0061   28.7775 N   0  0  0  0  0  0  0  0  0  0  0  0
   -1.7235    0.1746   27.3719 C   0  0  0  0  0  0  0  0  0  0  0  0
   -1.8662   -1.0958   29.4260 N   0  0  0  0  0  0  0  0  0  0  0  0
    2.2932   -3.6821   30.5921 N   0  0  0  0  0  0  0  0  0  0  0  0
    2.2940   -2.5871   29.5339 C   0  0  0  0  0  0  0  0  0  0  0  0
    3.0724   -1.2290   29.7721 C   0  0  0  0  0  0  0  0  0  0  0  0
    4.8821   -1.4783   29.6294 S   0  0  0  0  0  0  0  0  0  0  0  0
    2.6939   -0.6086   31.4169 Cl  0  0  0  0  0  0  0  0  0  0  0  0
    2.6321   -0.1233   28.6978 C   0  0  0  0  0  0  0  0  0  0  0  0
    1.9974   -0.4314   27.7600 O   0  0  0  0  0  0  0  0  0  0  0  0
    3.1488    1.2854   29.1558 N   0  0  0  0  0  0  0  0  0  0  0  0
    2.8982    2.6388   28.5866 C   0  0  0  0  0  0  0  0  0  0  0  0
    2.0099    3.4571   29.6279 C   0  0  0  0  0  0  0  0  0  0  0  0
    1.0497    4.3253   29.2859 N   0  0  0  0  0  0  0  0  0  0  0  0
    0.5448    4.6610   30.4881 N   0  0  0  0  0  0  0  0  0  0  0  0
    1.1977    4.0150   31.5017 C   0  0  0  0  0  0  0  0  0  0  0  0
    0.8700    4.1273   32.8913 C   0  0  0  0  0  0  0  0  0  0  0  0
    0.1483    5.1246   33.5215 C   0  0  0  0  0  0  0  0  0  0  0  0
    0.0002    4.8948   34.9218 C   0  0  0  0  0  0  0  0  0  0  0  0
    0.6179    3.7316   35.3194 C   0  0  0  0  0  0  0  0  0  0  0  0
    1.3725    2.9290   34.0132 S   0  0  0  0  0  0  0  0  0  0  0  0
    2.1338    3.2488   30.9819 N   0  0  0  0  0  0  0  0  0  0  0  0
    4.1699    3.4209   28.1245 C   0  0  0  0  0  0  0  0  0  0  0  0
    3.3479    3.9697   26.9367 C   0  0  0  0  0  0  0  0  0  0  0  0
    2.4284    2.7377   27.1051 C   0  0  0  0  0  0  0  0  0  0  0  0
    0.8680   -5.5456   32.6985 N   0  0  0  0  0  0  0  0  0  0  0  0
    0.6899   -5.1935   35.2041 H   0  0  0  0  0  0  0  0  0  0  0  0
   -0.9874   -5.7685   35.2432 H   0  0  0  0  0  0  0  0  0  0  0  0
    0.3577   -6.9027   35.5409 H   0  0  0  0  0  0  0  0  0  0  0  0
   -1.2803   -8.0055   33.5938 H   0  0  0  0  0  0  0  0  0  0  0  0
   -0.5376   -8.8010   30.2743 H   0  0  0  0  0  0  0  0  0  0  0  0
    1.2296   -5.0666   29.3790 H   0  0  0  0  0  0  0  0  0  0  0  0
   -0.4147   -3.2900   29.6252 H   0  0  0  0  0  0  0  0  0  0  0  0
   -1.0460   -4.6018   30.5976 H   0  0  0  0  0  0  0  0  0  0  0  0
   -0.0376   -3.6152   32.5964 H   0  0  0  0  0  0  0  0  0  0  0  0
   -0.2852    0.7233   31.7168 H   0  0  0  0  0  0  0  0  0  0  0  0
   -0.3786    1.8064   29.1804 H   0  0  0  0  0  0  0  0  0  0  0  0
   -0.7940    0.4706   26.8856 H   0  0  0  0  0  0  0  0  0  0  0  0
   -2.0962   -0.7647   26.9636 H   0  0  0  0  0  0  0  0  0  0  0  0
   -2.4731    0.9614   27.2595 H   0  0  0  0  0  0  0  0  0  0  0  0
    2.0982   -3.2185   31.4897 H   0  0  0  0  0  0  0  0  0  0  0  0
    1.2652   -2.2768   29.3433 H   0  0  0  0  0  0  0  0  0  0  0  0
    2.6388   -3.0425   28.5961 H   0  0  0  0  0  0  0  0  0  0  0  0
    4.8714   -1.8401   28.3379 H   0  0  0  0  0  0  0  0  0  0  0  0
    3.6017    1.2034   30.0654 H   0  0  0  0  0  0  0  0  0  0  0  0
   -0.2733    5.2666   30.5454 H   0  0  0  0  0  0  0  0  0  0  0  0
   -0.2590    5.9906   33.0125 H   0  0  0  0  0  0  0  0  0  0  0  0
   -0.5271    5.5528   35.6016 H   0  0  0  0  0  0  0  0  0  0  0  0
    0.6703    3.3129   36.3152 H   0  0  0  0  0  0  0  0  0  0  0  0
    5.0022    2.7754   27.8173 H   0  0  0  0  0  0  0  0  0  0  0  0
    4.5569    4.1778   28.8130 H   0  0  0  0  0  0  0  0  0  0  0  0
    3.8797    4.0351   25.9841 H   0  0  0  0  0  0  0  0  0  0  0  0
    2.8581    4.9288   27.1358 H   0  0  0  0  0  0  0  0  0  0  0  0
    1.3637    2.9135   26.9275 H   0  0  0  0  0  0  0  0  0  0  0  0
    2.7405    1.8924   26.4796 H   0  0  0  0  0  0  0  0  0  0  0  0
  1  2  1  0
  2  3  2  0
  3  4  1  0
  4  5  1  0
  4  6  2  0
  6  7  1  0
  7  8  1  0
  8  9  1  0
  9 10  1  0
 10 11  1  0
 11 12  2  0
 11 13  2  0
 11 14  1  0
 14 15  1  0
 15 16  2  0
 16 17  1  0
 17 18  1  0
 17 19  1  0
  8 20  1  0
 20 21  1  0
 21 22  1  0
 22 23  1  0
 22 24  1  0
 22 25  1  0
 25 26  2  0
 25 27  1  0
 27 28  1  0
 28 29  1  0
 29 30  2  0
 30 31  1  0
 31 32  1  0
 32 33  1  0
 33 34  2  0
 34 35  1  0
 35 36  2  0
 36 37  1  0
 32 38  2  0
 28 39  1  0
 39 40  1  0
 40 41  1  0
  7 42  2  0
 42  2  1  0
 19 14  2  0
 41 28  1  0
 38 29  1  0
 37 33  1  0
  1 43  1  0
  1 44  1  0
  1 45  1  0
  3 46  1  0
  5 47  1  0
  8 48  1  0
  9 49  1  0
  9 50  1  0
 10 51  1  0
 15 52  1  0
 16 53  1  0
 18 54  1  0
 18 55  1  0
 18 56  1  0
 20 57  1  0
 21 58  1  0
 21 59  1  0
 23 60  1  0
 27 61  1  0
 31 62  1  0
 34 63  1  0
 35 64  1  0
 36 65  1  0
 39 66  1  0
 39 67  1  0
 40 68  1  0
 40 69  1  0
 41 70  1  0
 41 71  1  0
M  END
>  <Energy>  (1002) 
168.78825069659538

>  <compound_id>  (1002) 
3034

>  <target_id>  (1002) 
1

>  <reference_id>  (1002) 
194

>  <inspiration_ids>  (1002) 
[194, 53]

>  <energy_score>  (1002) 
-88.79046059661965

>  <distance_score>  (1002) 
2.009757950551032

>  <path>  (1002) 
/opt/xchem-fragalysis-2/maxwin/BulkDock/SCRATCH/505736/C3034-P194/C3034-P194.minimised.mol

>  <scratch_subdir>  (1002) 
/opt/xchem-fragalysis-2/maxwin/BulkDock/SCRATCH/505736/C3034-P194

>  <fragmenstein_runtime>  (1002) 
10.718116760253906

>  <fragmenstein_outcome>  (1002) 
too moved

>  <fragmenstein_mode>  (1002) 
expansion

>  <fragmenstein_error>  (1002) 


$$$$
C3034-P53
     RDKit          3D

 71 75  0  0  0  0  0  0  0  0999 V2000
    0.2561   -6.1487   34.8465 C   0  0  0  0  0  0  0  0  0  0  0  0
    0.3147   -6.4225   33.3737 C   0  0  0  0  0  0  0  0  0  0  0  0
   -0.4086   -7.4612   32.8350 C   0  0  0  0  0  0  0  0  0  0  0  0
   -0.2705   -7.6362   31.4869 C   0  0  0  0  0  0  0  0  0  0  0  0
   -0.8786   -8.6818   30.8661 O   0  0  0  0  0  0  0  0  0  0  0  0
    0.4318   -6.8461   30.6721 N   0  0  0  0  0  0  0  0  0  0  0  0
    1.0389   -5.7989   31.2724 C   0  0  0  0  0  0  0  0  0  0  0  0
    1.4310   -4.6222   30.3632 C   0  0  0  0  0  0  0  0  0  0  0  0
    0.1772   -3.7019   30.3327 C   0  0  0  0  0  0  0  0  0  0  0  0
    0.0282   -2.9279   31.5971 N   0  0  0  0  0  0  0  0  0  0  0  0
   -1.3986   -2.0416   31.7480 S   0  0  0  0  0  0  0  0  0  0  0  0
   -1.2629   -1.1889   32.9091 O   0  0  0  0  0  0  0  0  0  0  0  0
   -2.5219   -2.9383   31.5687 O   0  0  0  0  0  0  0  0  0  0  0  0
   -1.4023   -0.9323   30.3894 C   0  0  0  0  0  0  0  0  0  0  0  0
   -0.7158    0.3033   30.3790 C   0  0  0  0  0  0  0  0  0  0  0  0
   -0.8504    0.7670   29.0918 C   0  0  0  0  0  0  0  0  0  0  0  0
   -1.5695   -0.1770   28.4196 N   0  0  0  0  0  0  0  0  0  0  0  0
   -1.9662   -0.1178   27.0342 C   0  0  0  0  0  0  0  0  0  0  0  0
   -1.8826   -1.2419   29.1745 N   0  0  0  0  0  0  0  0  0  0  0  0
    2.6934   -3.9144   30.7439 N   0  0  0  0  0  0  0  0  0  0  0  0
    3.0842   -2.8719   29.7559 C   0  0  0  0  0  0  0  0  0  0  0  0
    3.6060   -1.4950   30.2898 C   0  0  0  0  0  0  0  0  0  0  0  0
    5.2950   -1.6445   30.9863 S   0  0  0  0  0  0  0  0  0  0  0  0
    2.5147   -0.9092   31.6004 Cl  0  0  0  0  0  0  0  0  0  0  0  0
    3.6589   -0.4649   29.0915 C   0  0  0  0  0  0  0  0  0  0  0  0
    4.0616   -0.8675   28.0333 O   0  0  0  0  0  0  0  0  0  0  0  0
    3.2141    0.8501   29.4917 N   0  0  0  0  0  0  0  0  0  0  0  0
    3.0212    2.0855   28.7117 C   0  0  0  0  0  0  0  0  0  0  0  0
    2.0272    3.0365   29.5230 C   0  0  0  0  0  0  0  0  0  0  0  0
    1.1565    3.8861   28.9630 N   0  0  0  0  0  0  0  0  0  0  0  0
    0.4992    4.3564   30.0414 N   0  0  0  0  0  0  0  0  0  0  0  0
    0.9938    3.8180   31.1980 C   0  0  0  0  0  0  0  0  0  0  0  0
    0.5160    4.1213   32.5130 C   0  0  0  0  0  0  0  0  0  0  0  0
   -0.1685    5.2472   32.9327 C   0  0  0  0  0  0  0  0  0  0  0  0
   -0.5002    5.2026   34.3196 C   0  0  0  0  0  0  0  0  0  0  0  0
   -0.0536    4.0466   34.9174 C   0  0  0  0  0  0  0  0  0  0  0  0
    0.7607    3.0280   33.8129 S   0  0  0  0  0  0  0  0  0  0  0  0
    1.9399    2.9536   30.8944 N   0  0  0  0  0  0  0  0  0  0  0  0
    4.3307    2.7883   28.2703 C   0  0  0  0  0  0  0  0  0  0  0  0
    3.6575    3.0907   26.9155 C   0  0  0  0  0  0  0  0  0  0  0  0
    2.6793    1.9320   27.2049 C   0  0  0  0  0  0  0  0  0  0  0  0
    1.0612   -5.5963   32.6101 N   0  0  0  0  0  0  0  0  0  0  0  0
    0.5892   -7.0269   35.4083 H   0  0  0  0  0  0  0  0  0  0  0  0
    0.9052   -5.3080   35.1116 H   0  0  0  0  0  0  0  0  0  0  0  0
   -0.7667   -5.8979   35.1445 H   0  0  0  0  0  0  0  0  0  0  0  0
   -1.0276   -8.1089   33.4345 H   0  0  0  0  0  0  0  0  0  0  0  0
   -0.3480   -8.7353   30.0480 H   0  0  0  0  0  0  0  0  0  0  0  0
    1.5832   -5.0430   29.3613 H   0  0  0  0  0  0  0  0  0  0  0  0
    0.2601   -3.0020   29.4974 H   0  0  0  0  0  0  0  0  0  0  0  0
   -0.7196   -4.3012   30.1659 H   0  0  0  0  0  0  0  0  0  0  0  0
    0.8266   -2.3501   31.8588 H   0  0  0  0  0  0  0  0  0  0  0  0
   -0.1910    0.7796   31.1959 H   0  0  0  0  0  0  0  0  0  0  0  0
   -0.5131    1.6700   28.6025 H   0  0  0  0  0  0  0  0  0  0  0  0
   -1.0986    0.1836   26.4463 H   0  0  0  0  0  0  0  0  0  0  0  0
   -2.3253   -1.0978   26.7149 H   0  0  0  0  0  0  0  0  0  0  0  0
   -2.7577    0.6289   26.9394 H   0  0  0  0  0  0  0  0  0  0  0  0
    2.5609   -3.5291   31.6820 H   0  0  0  0  0  0  0  0  0  0  0  0
    2.2494   -2.6516   29.0816 H   0  0  0  0  0  0  0  0  0  0  0  0
    3.8434   -3.3227   29.1027 H   0  0  0  0  0  0  0  0  0  0  0  0
    5.8910   -1.9581   29.8250 H   0  0  0  0  0  0  0  0  0  0  0  0
    3.0203    0.8452   30.4947 H   0  0  0  0  0  0  0  0  0  0  0  0
   -0.2999    4.9770   29.9225 H   0  0  0  0  0  0  0  0  0  0  0  0
   -0.4219    6.0778   32.2836 H   0  0  0  0  0  0  0  0  0  0  0  0
   -1.0290    5.9840   34.8521 H   0  0  0  0  0  0  0  0  0  0  0  0
   -0.1555    3.7509   35.9530 H   0  0  0  0  0  0  0  0  0  0  0  0
    5.1958    2.1194   28.1839 H   0  0  0  0  0  0  0  0  0  0  0  0
    4.6333    3.6683   28.8457 H   0  0  0  0  0  0  0  0  0  0  0  0
    4.2923    2.9625   26.0349 H   0  0  0  0  0  0  0  0  0  0  0  0
    3.1808    4.0758   26.8661 H   0  0  0  0  0  0  0  0  0  0  0  0
    1.6418    2.1134   26.9083 H   0  0  0  0  0  0  0  0  0  0  0  0
    2.9929    0.9910   26.7413 H   0  0  0  0  0  0  0  0  0  0  0  0
  1  2  1  0
  2  3  2  0
  3  4  1  0
  4  5  1  0
  4  6  2  0
  6  7  1  0
  7  8  1  0
  8  9  1  0
  9 10  1  0
 10 11  1  0
 11 12  2  0
 11 13  2  0
 11 14  1  0
 14 15  1  0
 15 16  2  0
 16 17  1  0
 17 18  1  0
 17 19  1  0
  8 20  1  0
 20 21  1  0
 21 22  1  0
 22 23  1  0
 22 24  1  0
 22 25  1  0
 25 26  2  0
 25 27  1  0
 27 28  1  0
 28 29  1  0
 29 30  2  0
 30 31  1  0
 31 32  1  0
 32 33  1  0
 33 34  2  0
 34 35  1  0
 35 36  2  0
 36 37  1  0
 32 38  2  0
 28 39  1  0
 39 40  1  0
 40 41  1  0
  7 42  2  0
 42  2  1  0
 19 14  2  0
 41 28  1  0
 38 29  1  0
 37 33  1  0
  1 43  1  0
  1 44  1  0
  1 45  1  0
  3 46  1  0
  5 47  1  0
  8 48  1  0
  9 49  1  0
  9 50  1  0
 10 51  1  0
 15 52  1  0
 16 53  1  0
 18 54  1  0
 18 55  1  0
 18 56  1  0
 20 57  1  0
 21 58  1  0
 21 59  1  0
 23 60  1  0
 27 61  1  0
 31 62  1  0
 34 63  1  0
 35 64  1  0
 36 65  1  0
 39 66  1  0
 39 67  1  0
 40 68  1  0
 40 69  1  0
 41 70  1  0
 41 71  1  0
M  END
>  <Energy>  (1003) 
159.45818780563638

>  <compound_id>  (1003) 
3034

>  <target_id>  (1003) 
1

>  <reference_id>  (1003) 
53

>  <inspiration_ids>  (1003) 
[194, 53]

>  <energy_score>  (1003) 
-129.0037490304773

>  <distance_score>  (1003) 
2.438950155933

>  <path>  (1003) 
/opt/xchem-fragalysis-2/maxwin/BulkDock/SCRATCH/505736/C3034-P53/C3034-P53.minimised.mol

>  <scratch_subdir>  (1003) 
/opt/xchem-fragalysis-2/maxwin/BulkDock/SCRATCH/505736/C3034-P53

>  <fragmenstein_runtime>  (1003) 
14.931926012039185

>  <fragmenstein_outcome>  (1003) 
too moved

>  <fragmenstein_mode>  (1003) 
expansion

>  <fragmenstein_error>  (1003) 


$$$$
C2660-P194
     RDKit          3D

 59 62  0  0  0  0  0  0  0  0999 V2000
   -0.7411   -7.4481   35.2067 C   0  0  0  0  0  0  0  0  0  0  0  0
   -0.4647   -7.0941   33.7807 C   0  0  0  0  0  0  0  0  0  0  0  0
   -1.0717   -7.7480   32.7356 C   0  0  0  0  0  0  0  0  0  0  0  0
   -0.7541   -7.2823   31.4918 C   0  0  0  0  0  0  0  0  0  0  0  0
   -1.2979   -7.8416   30.3839 O   0  0  0  0  0  0  0  0  0  0  0  0
    0.0177   -6.2293   31.2313 N   0  0  0  0  0  0  0  0  0  0  0  0
    0.5124   -5.6152   32.3178 C   0  0  0  0  0  0  0  0  0  0  0  0
    1.0413   -4.2183   32.1544 C   0  0  0  0  0  0  0  0  0  0  0  0
    0.1684   -3.1702   32.9008 C   0  0  0  0  0  0  0  0  0  0  0  0
    0.1373   -3.2006   34.3484 N   0  0  0  0  0  0  0  0  0  0  0  0
    1.4020   -3.2786   35.0842 C   0  0  0  0  0  0  0  0  0  0  0  0
    0.9574   -3.5737   36.5693 C   0  0  0  0  0  0  0  0  0  0  0  0
    2.1963   -3.5196   37.3634 C   0  0  0  0  0  0  0  0  0  0  0  0
    2.3801   -3.9843   38.9689 S   0  0  0  0  0  0  0  0  0  0  0  0
    4.0392   -3.5477   38.9253 C   0  0  0  0  0  0  0  0  0  0  0  0
    4.4219   -3.0566   37.6915 C   0  0  0  0  0  0  0  0  0  0  0  0
    3.3354   -3.0407   36.7765 C   0  0  0  0  0  0  0  0  0  0  0  0
    3.2973   -2.6306   35.3328 C   0  0  0  0  0  0  0  0  0  0  0  0
    2.0172   -1.9100   34.8257 N   0  0  0  0  0  0  0  0  0  0  0  0
    1.8491   -0.6580   35.5195 C   0  0  0  0  0  0  0  0  0  0  0  0
    1.2511   -0.3988   36.5327 O   0  0  0  0  0  0  0  0  0  0  0  0
    2.5429    0.4550   34.7051 C   0  0  0  0  0  0  0  0  0  0  0  0
    1.3513    1.7607   34.3005 S   0  0  0  0  0  0  0  0  0  0  0  0
    3.8878    1.1070   35.6712 Cl  0  0  0  0  0  0  0  0  0  0  0  0
   -1.2270   -3.3765   32.5234 N   0  0  0  0  0  0  0  0  0  0  0  0
   -2.2041   -2.0260   32.3641 S   0  0  0  0  0  0  0  0  0  0  0  0
   -2.0040   -1.1897   33.5300 O   0  0  0  0  0  0  0  0  0  0  0  0
   -3.5119   -2.5238   31.9937 O   0  0  0  0  0  0  0  0  0  0  0  0
   -1.6509   -1.0625   31.0208 C   0  0  0  0  0  0  0  0  0  0  0  0
   -0.9683    0.1695   31.1458 C   0  0  0  0  0  0  0  0  0  0  0  0
   -0.7664    0.5921   29.8536 C   0  0  0  0  0  0  0  0  0  0  0  0
   -1.3365   -0.3575   29.0566 N   0  0  0  0  0  0  0  0  0  0  0  0
   -1.5016   -0.2812   27.6265 C   0  0  0  0  0  0  0  0  0  0  0  0
   -1.7848   -1.4265   29.7357 N   0  0  0  0  0  0  0  0  0  0  0  0
    0.3890   -6.0756   33.5762 N   0  0  0  0  0  0  0  0  0  0  0  0
   -0.7947   -6.5413   35.8174 H   0  0  0  0  0  0  0  0  0  0  0  0
   -1.6982   -7.9662   35.3086 H   0  0  0  0  0  0  0  0  0  0  0  0
    0.0576   -8.0817   35.5970 H   0  0  0  0  0  0  0  0  0  0  0  0
   -1.7716   -8.5566   32.8687 H   0  0  0  0  0  0  0  0  0  0  0  0
   -0.9570   -7.2191   29.7121 H   0  0  0  0  0  0  0  0  0  0  0  0
    1.0437   -3.9699   31.0848 H   0  0  0  0  0  0  0  0  0  0  0  0
    2.0858   -4.1775   32.4798 H   0  0  0  0  0  0  0  0  0  0  0  0
    0.5189   -2.1881   32.5629 H   0  0  0  0  0  0  0  0  0  0  0  0
   -0.3874   -2.3885   34.6845 H   0  0  0  0  0  0  0  0  0  0  0  0
    1.9222   -4.1505   34.6621 H   0  0  0  0  0  0  0  0  0  0  0  0
    0.4883   -4.5622   36.6323 H   0  0  0  0  0  0  0  0  0  0  0  0
    0.2398   -2.8281   36.9318 H   0  0  0  0  0  0  0  0  0  0  0  0
    4.6500   -3.6689   39.8097 H   0  0  0  0  0  0  0  0  0  0  0  0
    5.4316   -2.7286   37.4752 H   0  0  0  0  0  0  0  0  0  0  0  0
    4.0772   -1.8604   35.2334 H   0  0  0  0  0  0  0  0  0  0  0  0
    3.6585   -3.4051   34.6368 H   0  0  0  0  0  0  0  0  0  0  0  0
    2.9627    0.0637   33.7740 H   0  0  0  0  0  0  0  0  0  0  0  0
    0.9384    1.9378   35.5666 H   0  0  0  0  0  0  0  0  0  0  0  0
   -1.6679   -3.9925   33.2184 H   0  0  0  0  0  0  0  0  0  0  0  0
   -0.6982    0.6905   32.0533 H   0  0  0  0  0  0  0  0  0  0  0  0
   -0.3239    1.4902   29.4435 H   0  0  0  0  0  0  0  0  0  0  0  0
   -2.0240   -1.1730   27.2770 H   0  0  0  0  0  0  0  0  0  0  0  0
   -0.5067   -0.2052   27.1888 H   0  0  0  0  0  0  0  0  0  0  0  0
   -2.0887    0.6105   27.3938 H   0  0  0  0  0  0  0  0  0  0  0  0
  1  2  1  0
  2  3  2  0
  3  4  1  0
  4  5  1  0
  4  6  2  0
  6  7  1  0
  7  8  1  0
  8  9  1  0
  9 10  1  0
 10 11  1  0
 11 12  1  0
 12 13  1  0
 13 14  1  0
 14 15  1  0
 15 16  2  0
 16 17  1  0
 17 18  1  0
 18 19  1  0
 19 20  1  0
 20 21  2  0
 20 22  1  0
 22 23  1  0
 22 24  1  0
  9 25  1  0
 25 26  1  0
 26 27  2  0
 26 28  2  0
 26 29  1  0
 29 30  1  0
 30 31  2  0
 31 32  1  0
 32 33  1  0
 32 34  1  0
  7 35  2  0
 35  2  1  0
 19 11  1  0
 34 29  2  0
 17 13  2  0
  1 36  1  0
  1 37  1  0
  1 38  1  0
  3 39  1  0
  5 40  1  0
  8 41  1  0
  8 42  1  0
  9 43  1  0
 10 44  1  0
 11 45  1  0
 12 46  1  0
 12 47  1  0
 15 48  1  0
 16 49  1  0
 18 50  1  0
 18 51  1  0
 22 52  1  0
 23 53  1  0
 25 54  1  0
 30 55  1  0
 31 56  1  0
 33 57  1  0
 33 58  1  0
 33 59  1  0
M  END
>  <Energy>  (1004) 
27.391643331309275

>  <compound_id>  (1004) 
2660

>  <target_id>  (1004) 
1

>  <reference_id>  (1004) 
194

>  <inspiration_ids>  (1004) 
[194, 56]

>  <energy_score>  (1004) 
-45.1295128269621

>  <distance_score>  (1004) 
2.2664417988793795

>  <path>  (1004) 
/opt/xchem-fragalysis-2/maxwin/BulkDock/SCRATCH/505736/C2660-P194/C2660-P194.minimised.mol

>  <scratch_subdir>  (1004) 
/opt/xchem-fragalysis-2/maxwin/BulkDock/SCRATCH/505736/C2660-P194

>  <fragmenstein_runtime>  (1004) 
16.08492684364319

>  <fragmenstein_outcome>  (1004) 
too moved

>  <fragmenstein_mode>  (1004) 
expansion

>  <fragmenstein_error>  (1004) 


$$$$
C2660-P56
     RDKit          3D

 59 62  0  0  0  0  0  0  0  0999 V2000
   -1.4053   -7.6805   35.2951 C   0  0  0  0  0  0  0  0  0  0  0  0
   -0.9520   -7.3028   33.9266 C   0  0  0  0  0  0  0  0  0  0  0  0
   -1.2930   -8.0504   32.8259 C   0  0  0  0  0  0  0  0  0  0  0  0
   -0.7699   -7.5986   31.6459 C   0  0  0  0  0  0  0  0  0  0  0  0
   -0.9417   -8.3108   30.5043 O   0  0  0  0  0  0  0  0  0  0  0  0
   -0.0233   -6.5099   31.4880 N   0  0  0  0  0  0  0  0  0  0  0  0
    0.2449   -5.8372   32.6174 C   0  0  0  0  0  0  0  0  0  0  0  0
    0.9523   -4.5209   32.4858 C   0  0  0  0  0  0  0  0  0  0  0  0
    0.1293   -3.3318   33.0309 C   0  0  0  0  0  0  0  0  0  0  0  0
   -0.0291   -3.2141   34.4693 N   0  0  0  0  0  0  0  0  0  0  0  0
    1.1836   -3.1724   35.3038 C   0  0  0  0  0  0  0  0  0  0  0  0
    0.6027   -3.1732   36.7760 C   0  0  0  0  0  0  0  0  0  0  0  0
    1.7166   -2.8151   37.6695 C   0  0  0  0  0  0  0  0  0  0  0  0
    1.6785   -2.7526   39.3504 S   0  0  0  0  0  0  0  0  0  0  0  0
    3.3050   -2.2023   39.3854 C   0  0  0  0  0  0  0  0  0  0  0  0
    3.8449   -2.0738   38.1199 C   0  0  0  0  0  0  0  0  0  0  0  0
    2.9086   -2.4388   37.1171 C   0  0  0  0  0  0  0  0  0  0  0  0
    3.0502   -2.4751   35.6264 C   0  0  0  0  0  0  0  0  0  0  0  0
    1.8558   -1.8925   34.8197 N   0  0  0  0  0  0  0  0  0  0  0  0
    1.6353   -0.5205   35.1871 C   0  0  0  0  0  0  0  0  0  0  0  0
    0.9256   -0.0411   36.0384 O   0  0  0  0  0  0  0  0  0  0  0  0
    2.4278    0.4613   34.2844 C   0  0  0  0  0  0  0  0  0  0  0  0
    2.8463   -0.1547   32.6271 S   0  0  0  0  0  0  0  0  0  0  0  0
    3.8955    0.9890   35.1461 Cl  0  0  0  0  0  0  0  0  0  0  0  0
   -1.2438   -3.4293   32.5400 N   0  0  0  0  0  0  0  0  0  0  0  0
   -2.0363   -2.0153   32.1460 S   0  0  0  0  0  0  0  0  0  0  0  0
   -1.8330   -1.0536   33.2099 O   0  0  0  0  0  0  0  0  0  0  0  0
   -3.3650   -2.4091   31.7226 O   0  0  0  0  0  0  0  0  0  0  0  0
   -1.3204   -1.2589   30.7474 C   0  0  0  0  0  0  0  0  0  0  0  0
   -1.7828   -0.0454   30.1906 C   0  0  0  0  0  0  0  0  0  0  0  0
   -0.9640    0.1823   29.1114 C   0  0  0  0  0  0  0  0  0  0  0  0
   -0.0897   -0.8642   29.0760 N   0  0  0  0  0  0  0  0  0  0  0  0
    0.9488   -1.0883   28.1017 C   0  0  0  0  0  0  0  0  0  0  0  0
   -0.2388   -1.7293   30.0989 N   0  0  0  0  0  0  0  0  0  0  0  0
   -0.1603   -6.2188   33.8441 N   0  0  0  0  0  0  0  0  0  0  0  0
   -2.3705   -8.1944   35.2617 H   0  0  0  0  0  0  0  0  0  0  0  0
   -1.5098   -6.7861   35.9167 H   0  0  0  0  0  0  0  0  0  0  0  0
   -0.6701   -8.3338   35.7619 H   0  0  0  0  0  0  0  0  0  0  0  0
   -1.8909   -8.9483   32.8799 H   0  0  0  0  0  0  0  0  0  0  0  0
   -0.1429   -8.0167   30.0106 H   0  0  0  0  0  0  0  0  0  0  0  0
    1.1455   -4.3413   31.4194 H   0  0  0  0  0  0  0  0  0  0  0  0
    1.9366   -4.5847   32.9608 H   0  0  0  0  0  0  0  0  0  0  0  0
    0.6021   -2.4273   32.6388 H   0  0  0  0  0  0  0  0  0  0  0  0
   -0.5547   -2.3567   34.6520 H   0  0  0  0  0  0  0  0  0  0  0  0
    1.7023   -4.1182   35.0873 H   0  0  0  0  0  0  0  0  0  0  0  0
    0.1959   -4.1631   37.0153 H   0  0  0  0  0  0  0  0  0  0  0  0
   -0.2034   -2.4365   36.8865 H   0  0  0  0  0  0  0  0  0  0  0  0
    3.7810   -1.9944   40.3330 H   0  0  0  0  0  0  0  0  0  0  0  0
    4.8575   -1.7368   37.9365 H   0  0  0  0  0  0  0  0  0  0  0  0
    3.8779   -1.7919   35.3931 H   0  0  0  0  0  0  0  0  0  0  0  0
    3.4403   -3.4268   35.2310 H   0  0  0  0  0  0  0  0  0  0  0  0
    1.8017    1.3481   34.1418 H   0  0  0  0  0  0  0  0  0  0  0  0
    1.5812   -0.3613   32.2335 H   0  0  0  0  0  0  0  0  0  0  0  0
   -1.7890   -3.9478   33.2475 H   0  0  0  0  0  0  0  0  0  0  0  0
   -2.6137    0.5596   30.5208 H   0  0  0  0  0  0  0  0  0  0  0  0
   -0.9463    0.9717   28.3722 H   0  0  0  0  0  0  0  0  0  0  0  0
    0.9003   -0.3115   27.3376 H   0  0  0  0  0  0  0  0  0  0  0  0
    0.8010   -2.0758   27.6612 H   0  0  0  0  0  0  0  0  0  0  0  0
    1.9131   -1.0427   28.6143 H   0  0  0  0  0  0  0  0  0  0  0  0
  1  2  1  0
  2  3  2  0
  3  4  1  0
  4  5  1  0
  4  6  2  0
  6  7  1  0
  7  8  1  0
  8  9  1  0
  9 10  1  0
 10 11  1  0
 11 12  1  0
 12 13  1  0
 13 14  1  0
 14 15  1  0
 15 16  2  0
 16 17  1  0
 17 18  1  0
 18 19  1  0
 19 20  1  0
 20 21  2  0
 20 22  1  0
 22 23  1  0
 22 24  1  0
  9 25  1  0
 25 26  1  0
 26 27  2  0
 26 28  2  0
 26 29  1  0
 29 30  1  0
 30 31  2  0
 31 32  1  0
 32 33  1  0
 32 34  1  0
  7 35  2  0
 35  2  1  0
 19 11  1  0
 34 29  2  0
 17 13  2  0
  1 36  1  0
  1 37  1  0
  1 38  1  0
  3 39  1  0
  5 40  1  0
  8 41  1  0
  8 42  1  0
  9 43  1  0
 10 44  1  0
 11 45  1  0
 12 46  1  0
 12 47  1  0
 15 48  1  0
 16 49  1  0
 18 50  1  0
 18 51  1  0
 22 52  1  0
 23 53  1  0
 25 54  1  0
 30 55  1  0
 31 56  1  0
 33 57  1  0
 33 58  1  0
 33 59  1  0
M  END
>  <Energy>  (1005) 
24.368197064678498

>  <compound_id>  (1005) 
2660

>  <target_id>  (1005) 
1

>  <reference_id>  (1005) 
56

>  <inspiration_ids>  (1005) 
[194, 56]

>  <energy_score>  (1005) 
-48.15295909359206

>  <distance_score>  (1005) 
2.439512817299138

>  <path>  (1005) 
/opt/xchem-fragalysis-2/maxwin/BulkDock/SCRATCH/505736/C2660-P56/C2660-P56.minimised.mol

>  <scratch_subdir>  (1005) 
/opt/xchem-fragalysis-2/maxwin/BulkDock/SCRATCH/505736/C2660-P56

>  <fragmenstein_runtime>  (1005) 
17.67422652244568

>  <fragmenstein_outcome>  (1005) 
too moved

>  <fragmenstein_mode>  (1005) 
expansion

>  <fragmenstein_error>  (1005) 


$$$$
C3035-P194
     RDKit          3D

 55 59  0  0  0  0  0  0  0  0999 V2000
    1.0779   -3.3585   31.6618 N   0  0  0  0  0  0  0  0  0  0  0  0
   -0.2191   -2.4764   32.2367 S   0  0  0  0  0  0  0  0  0  0  0  0
   -0.0902   -2.4879   33.6764 O   0  0  0  0  0  0  0  0  0  0  0  0
   -1.3765   -3.0935   31.6156 O   0  0  0  0  0  0  0  0  0  0  0  0
    0.1487   -0.7045   31.6275 C   0  0  0  0  0  0  0  0  0  0  0  0
   -1.0213    0.1315   32.1072 C   0  0  0  0  0  0  0  0  0  0  0  0
   -2.0603   -0.2191   31.0728 C   0  0  0  0  0  0  0  0  0  0  0  0
   -1.2954   -0.4271   29.8618 N   0  0  0  0  0  0  0  0  0  0  0  0
   -1.7742   -1.4718   28.9901 C   0  0  0  0  0  0  0  0  0  0  0  0
   -1.6959   -1.0138   27.5578 C   0  0  0  0  0  0  0  0  0  0  0  0
   -1.8115    0.4835   27.3054 C   0  0  0  0  0  0  0  0  0  0  0  0
   -0.5086    1.2744   27.4189 C   0  0  0  0  0  0  0  0  0  0  0  0
    0.7140    0.6224   28.0797 C   0  0  0  0  0  0  0  0  0  0  0  0
    1.9436    1.3449   27.7359 N   0  0  0  0  0  0  0  0  0  0  0  0
    2.1284    2.2666   28.8428 C   0  0  0  0  0  0  0  0  0  0  0  0
    3.1654    3.3780   28.4315 C   0  0  0  0  0  0  0  0  0  0  0  0
    2.5913    4.0544   27.1729 C   0  0  0  0  0  0  0  0  0  0  0  0
    3.0057    3.8231   25.9318 N   0  0  0  0  0  0  0  0  0  0  0  0
    1.8754    3.9184   25.1737 C   0  0  0  0  0  0  0  0  0  0  0  0
    1.7999    3.5343   23.9027 O   0  0  0  0  0  0  0  0  0  0  0  0
    0.7756    4.2638   25.9039 C   0  0  0  0  0  0  0  0  0  0  0  0
   -0.6183    4.2859   25.7008 C   0  0  0  0  0  0  0  0  0  0  0  0
   -1.3992    4.5371   26.7531 C   0  0  0  0  0  0  0  0  0  0  0  0
   -0.7267    4.9304   28.0108 C   0  0  0  0  0  0  0  0  0  0  0  0
    0.5497    4.9256   28.2382 N   0  0  0  0  0  0  0  0  0  0  0  0
    1.2803    4.5343   27.1591 N   0  0  0  0  0  0  0  0  0  0  0  0
    2.0586    1.2517   29.9374 N   0  0  0  0  0  0  0  0  0  0  0  0
    0.6740    0.7302   29.6332 C   0  0  0  0  0  0  0  0  0  0  0  0
    0.1399   -0.5466   30.1615 N   0  0  0  0  0  0  0  0  0  0  0  0
    0.7980   -3.9361   30.8695 H   0  0  0  0  0  0  0  0  0  0  0  0
    1.5477   -3.8526   32.4192 H   0  0  0  0  0  0  0  0  0  0  0  0
    1.0979   -0.4287   32.0982 H   0  0  0  0  0  0  0  0  0  0  0  0
   -1.3585   -0.1104   33.1195 H   0  0  0  0  0  0  0  0  0  0  0  0
   -0.7722    1.1977   32.0819 H   0  0  0  0  0  0  0  0  0  0  0  0
   -2.7773    0.5762   30.9200 H   0  0  0  0  0  0  0  0  0  0  0  0
   -2.6416   -1.0919   31.3853 H   0  0  0  0  0  0  0  0  0  0  0  0
   -2.8072   -1.6993   29.2111 H   0  0  0  0  0  0  0  0  0  0  0  0
   -1.2375   -2.4203   29.1150 H   0  0  0  0  0  0  0  0  0  0  0  0
   -0.7417   -1.3676   27.1939 H   0  0  0  0  0  0  0  0  0  0  0  0
   -2.4781   -1.5318   26.9969 H   0  0  0  0  0  0  0  0  0  0  0  0
   -2.5549    0.9443   27.9608 H   0  0  0  0  0  0  0  0  0  0  0  0
   -2.2039    0.6354   26.2930 H   0  0  0  0  0  0  0  0  0  0  0  0
   -0.7480    2.1994   27.9497 H   0  0  0  0  0  0  0  0  0  0  0  0
   -0.2393    1.5910   26.4120 H   0  0  0  0  0  0  0  0  0  0  0  0
    0.8979   -0.3977   27.7371 H   0  0  0  0  0  0  0  0  0  0  0  0
    1.8736    1.8068   26.8343 H   0  0  0  0  0  0  0  0  0  0  0  0
    1.2367    2.8704   29.0260 H   0  0  0  0  0  0  0  0  0  0  0  0
    3.2827    4.1120   29.2350 H   0  0  0  0  0  0  0  0  0  0  0  0
    4.1421    2.9359   28.2083 H   0  0  0  0  0  0  0  0  0  0  0  0
    2.6761    3.1832   23.6691 H   0  0  0  0  0  0  0  0  0  0  0  0
   -1.0348    4.0097   24.7377 H   0  0  0  0  0  0  0  0  0  0  0  0
   -2.4729    4.4592   26.7105 H   0  0  0  0  0  0  0  0  0  0  0  0
   -1.4070    5.2471   28.8121 H   0  0  0  0  0  0  0  0  0  0  0  0
    2.7005    0.5222   29.6263 H   0  0  0  0  0  0  0  0  0  0  0  0
    0.0035    1.5430   29.9555 H   0  0  0  0  0  0  0  0  0  0  0  0
  1  2  1  0
  2  3  2  0
  2  4  2  0
  2  5  1  0
  5  6  1  0
  6  7  1  0
  7  8  1  0
  8  9  1  0
  9 10  1  0
 10 11  1  0
 11 12  1  0
 12 13  1  0
 13 14  1  0
 14 15  1  0
 15 16  1  0
 16 17  1  0
 17 18  2  0
 18 19  1  0
 19 20  1  0
 19 21  2  0
 21 22  1  0
 22 23  2  0
 23 24  1  0
 24 25  2  0
 25 26  1  0
 15 27  1  0
 27 28  1  0
 28 29  1  0
 29  5  1  0
 29  8  1  0
 28 13  1  0
 26 17  1  0
 26 21  1  0
  1 30  1  0
  1 31  1  0
  5 32  1  0
  6 33  1  0
  6 34  1  0
  7 35  1  0
  7 36  1  0
  9 37  1  0
  9 38  1  0
 10 39  1  0
 10 40  1  0
 11 41  1  0
 11 42  1  0
 12 43  1  0
 12 44  1  0
 13 45  1  0
 14 46  1  0
 15 47  1  0
 16 48  1  0
 16 49  1  0
 20 50  1  0
 22 51  1  0
 23 52  1  0
 24 53  1  0
 27 54  1  0
 28 55  1  0
M  END
>  <Energy>  (1006) 
38.480018344211331

>  <compound_id>  (1006) 
3035

>  <target_id>  (1006) 
1

>  <reference_id>  (1006) 
194

>  <inspiration_ids>  (1006) 
[194, 57]

>  <energy_score>  (1006) 
-56.32312707918578

>  <distance_score>  (1006) 
1.8703850064692489

>  <path>  (1006) 
/opt/xchem-fragalysis-2/maxwin/BulkDock/SCRATCH/505736/C3035-P194/C3035-P194.minimised.mol

>  <scratch_subdir>  (1006) 
/opt/xchem-fragalysis-2/maxwin/BulkDock/SCRATCH/505736/C3035-P194

>  <fragmenstein_runtime>  (1006) 
2.698570489883423

>  <fragmenstein_outcome>  (1006) 
too moved

>  <fragmenstein_mode>  (1006) 
expansion

>  <fragmenstein_error>  (1006) 


$$$$
C3035-P57
     RDKit          3D

 55 59  0  0  0  0  0  0  0  0999 V2000
    1.1324   -3.2947   31.7851 N   0  0  0  0  0  0  0  0  0  0  0  0
   -0.1965   -2.3981   32.2552 S   0  0  0  0  0  0  0  0  0  0  0  0
   -0.1404   -2.3444   33.6987 O   0  0  0  0  0  0  0  0  0  0  0  0
   -1.3162   -3.0564   31.6081 O   0  0  0  0  0  0  0  0  0  0  0  0
    0.1916   -0.6495   31.5819 C   0  0  0  0  0  0  0  0  0  0  0  0
   -1.0227    0.1885   31.9193 C   0  0  0  0  0  0  0  0  0  0  0  0
   -1.9736   -0.2431   30.8304 C   0  0  0  0  0  0  0  0  0  0  0  0
   -1.1072   -0.4941   29.7035 N   0  0  0  0  0  0  0  0  0  0  0  0
   -1.4693   -1.6083   28.8629 C   0  0  0  0  0  0  0  0  0  0  0  0
   -1.5247   -1.1279   27.4369 C   0  0  0  0  0  0  0  0  0  0  0  0
   -1.5449    0.3704   27.1910 C   0  0  0  0  0  0  0  0  0  0  0  0
   -0.1773    1.0655   27.2665 C   0  0  0  0  0  0  0  0  0  0  0  0
    1.0145    0.4345   27.9987 C   0  0  0  0  0  0  0  0  0  0  0  0
    2.3265    0.9875   27.6226 N   0  0  0  0  0  0  0  0  0  0  0  0
    2.8385    1.7416   28.7519 C   0  0  0  0  0  0  0  0  0  0  0  0
    2.6661    3.3167   28.7006 C   0  0  0  0  0  0  0  0  0  0  0  0
    2.1139    3.8179   27.3952 C   0  0  0  0  0  0  0  0  0  0  0  0
    2.7170    3.7593   26.2198 N   0  0  0  0  0  0  0  0  0  0  0  0
    1.7204    3.9173   25.3011 C   0  0  0  0  0  0  0  0  0  0  0  0
    1.9012    3.8059   23.9828 O   0  0  0  0  0  0  0  0  0  0  0  0
    0.4951    4.0751   25.8940 C   0  0  0  0  0  0  0  0  0  0  0  0
   -0.8549    4.0808   25.4856 C   0  0  0  0  0  0  0  0  0  0  0  0
   -1.7980    4.1461   26.4266 C   0  0  0  0  0  0  0  0  0  0  0  0
   -1.3456    4.3294   27.8212 C   0  0  0  0  0  0  0  0  0  0  0  0
   -0.1214    4.3302   28.2451 N   0  0  0  0  0  0  0  0  0  0  0  0
    0.7837    4.1577   27.2449 N   0  0  0  0  0  0  0  0  0  0  0  0
    2.2917    0.9663   29.9144 N   0  0  0  0  0  0  0  0  0  0  0  0
    0.9014    0.6603   29.5301 C   0  0  0  0  0  0  0  0  0  0  0  0
    0.2844   -0.5638   30.1144 N   0  0  0  0  0  0  0  0  0  0  0  0
    0.8940   -3.9134   31.0103 H   0  0  0  0  0  0  0  0  0  0  0  0
    1.5722   -3.7456   32.5862 H   0  0  0  0  0  0  0  0  0  0  0  0
    1.0976   -0.3335   32.1087 H   0  0  0  0  0  0  0  0  0  0  0  0
   -1.4326    0.0038   32.9166 H   0  0  0  0  0  0  0  0  0  0  0  0
   -0.7704    1.2505   31.8440 H   0  0  0  0  0  0  0  0  0  0  0  0
   -2.7002    0.5107   30.5583 H   0  0  0  0  0  0  0  0  0  0  0  0
   -2.5566   -1.1106   31.1521 H   0  0  0  0  0  0  0  0  0  0  0  0
   -2.4165   -2.0553   29.1422 H   0  0  0  0  0  0  0  0  0  0  0  0
   -0.7608   -2.4454   28.9431 H   0  0  0  0  0  0  0  0  0  0  0  0
   -0.6178   -1.5140   26.9975 H   0  0  0  0  0  0  0  0  0  0  0  0
   -2.3876   -1.5814   26.9406 H   0  0  0  0  0  0  0  0  0  0  0  0
   -1.9519    0.5523   26.1885 H   0  0  0  0  0  0  0  0  0  0  0  0
   -2.2535    0.8667   27.8641 H   0  0  0  0  0  0  0  0  0  0  0  0
   -0.3882    2.0034   27.7588 H   0  0  0  0  0  0  0  0  0  0  0  0
    0.1215    1.3260   26.2564 H   0  0  0  0  0  0  0  0  0  0  0  0
    1.1058   -0.6276   27.7522 H   0  0  0  0  0  0  0  0  0  0  0  0
    2.3161    1.5384   26.7650 H   0  0  0  0  0  0  0  0  0  0  0  0
    3.9243    1.5829   28.7765 H   0  0  0  0  0  0  0  0  0  0  0  0
    2.0304    3.6350   29.5348 H   0  0  0  0  0  0  0  0  0  0  0  0
    3.6449    3.7835   28.8667 H   0  0  0  0  0  0  0  0  0  0  0  0
    1.1081    4.0911   23.5045 H   0  0  0  0  0  0  0  0  0  0  0  0
   -1.1239    3.9685   24.4412 H   0  0  0  0  0  0  0  0  0  0  0  0
   -2.8548    4.0939   26.2094 H   0  0  0  0  0  0  0  0  0  0  0  0
   -2.1673    4.4417   28.5371 H   0  0  0  0  0  0  0  0  0  0  0  0
    2.7742    0.0696   29.8484 H   0  0  0  0  0  0  0  0  0  0  0  0
    0.3117    1.5561   29.7697 H   0  0  0  0  0  0  0  0  0  0  0  0
  1  2  1  0
  2  3  2  0
  2  4  2  0
  2  5  1  0
  5  6  1  0
  6  7  1  0
  7  8  1  0
  8  9  1  0
  9 10  1  0
 10 11  1  0
 11 12  1  0
 12 13  1  0
 13 14  1  0
 14 15  1  0
 15 16  1  0
 16 17  1  0
 17 18  2  0
 18 19  1  0
 19 20  1  0
 19 21  2  0
 21 22  1  0
 22 23  2  0
 23 24  1  0
 24 25  2  0
 25 26  1  0
 15 27  1  0
 27 28  1  0
 28 29  1  0
 29  5  1  0
 29  8  1  0
 28 13  1  0
 26 17  1  0
 26 21  1  0
  1 30  1  0
  1 31  1  0
  5 32  1  0
  6 33  1  0
  6 34  1  0
  7 35  1  0
  7 36  1  0
  9 37  1  0
  9 38  1  0
 10 39  1  0
 10 40  1  0
 11 41  1  0
 11 42  1  0
 12 43  1  0
 12 44  1  0
 13 45  1  0
 14 46  1  0
 15 47  1  0
 16 48  1  0
 16 49  1  0
 20 50  1  0
 22 51  1  0
 23 52  1  0
 24 53  1  0
 27 54  1  0
 28 55  1  0
M  END
>  <Energy>  (1007) 
27.993117498996291

>  <compound_id>  (1007) 
3035

>  <target_id>  (1007) 
1

>  <reference_id>  (1007) 
57

>  <inspiration_ids>  (1007) 
[194, 57]

>  <energy_score>  (1007) 
-66.81002792439841

>  <distance_score>  (1007) 
1.8630035043119246

>  <path>  (1007) 
/opt/xchem-fragalysis-2/maxwin/BulkDock/SCRATCH/505736/C3035-P57/C3035-P57.minimised.mol

>  <scratch_subdir>  (1007) 
/opt/xchem-fragalysis-2/maxwin/BulkDock/SCRATCH/505736/C3035-P57

>  <fragmenstein_runtime>  (1007) 
2.405012845993042

>  <fragmenstein_outcome>  (1007) 
too moved

>  <fragmenstein_mode>  (1007) 
expansion

>  <fragmenstein_error>  (1007) 


$$$$
C352-P194
     RDKit          3D

 27 28  0  0  0  0  0  0  0  0999 V2000
   -3.3734   -0.1980   32.1327 O   0  0  0  0  0  0  0  0  0  0  0  0
   -3.0924   -0.1366   33.5738 N   0  0  0  0  0  0  0  0  0  0  0  0
   -2.8163   -1.5077   33.9914 C   0  0  0  0  0  0  0  0  0  0  0  0
   -4.0849   -2.1118   34.0947 O   0  0  0  0  0  0  0  0  0  0  0  0
   -2.0147   -2.0990   32.9707 O   0  0  0  0  0  0  0  0  0  0  0  0
   -1.3997   -3.2969   33.1723 C   0  0  0  0  0  0  0  0  0  0  0  0
   -0.8021   -3.7259   34.3713 C   0  0  0  0  0  0  0  0  0  0  0  0
   -0.1411   -4.9611   34.4250 C   0  0  0  0  0  0  0  0  0  0  0  0
   -0.0767   -5.6948   33.2593 C   0  0  0  0  0  0  0  0  0  0  0  0
   -0.7457   -5.2887   32.1073 C   0  0  0  0  0  0  0  0  0  0  0  0
   -1.3464   -4.0693   32.0220 C   0  0  0  0  0  0  0  0  0  0  0  0
   -0.5342   -6.2556   31.0109 C   0  0  0  0  0  0  0  0  0  0  0  0
    0.7520   -6.8407   31.5474 C   0  0  0  0  0  0  0  0  0  0  0  0
    1.8563   -6.0451   31.1334 O   0  0  0  0  0  0  0  0  0  0  0  0
    0.7212   -6.8411   33.0132 N   0  0  0  0  0  0  0  0  0  0  0  0
   -2.7786   -0.9080   31.8088 H   0  0  0  0  0  0  0  0  0  0  0  0
   -4.0304    0.0260   33.9476 H   0  0  0  0  0  0  0  0  0  0  0  0
   -2.3222   -1.4932   34.9675 H   0  0  0  0  0  0  0  0  0  0  0  0
   -3.8618   -3.0324   34.3407 H   0  0  0  0  0  0  0  0  0  0  0  0
   -0.8207   -3.1075   35.2628 H   0  0  0  0  0  0  0  0  0  0  0  0
    0.3562   -5.2869   35.3315 H   0  0  0  0  0  0  0  0  0  0  0  0
   -1.7526   -3.6952   31.0878 H   0  0  0  0  0  0  0  0  0  0  0  0
   -0.3963   -5.7758   30.0391 H   0  0  0  0  0  0  0  0  0  0  0  0
   -1.3430   -6.9920   30.9893 H   0  0  0  0  0  0  0  0  0  0  0  0
    0.8468   -7.8369   31.1286 H   0  0  0  0  0  0  0  0  0  0  0  0
    1.6870   -5.1461   31.4663 H   0  0  0  0  0  0  0  0  0  0  0  0
    1.6503   -6.6887   33.3955 H   0  0  0  0  0  0  0  0  0  0  0  0
  1  2  1  0
  2  3  1  0
  3  4  1  0
  3  5  1  0
  5  6  1  0
  6  7  2  0
  7  8  1  0
  8  9  2  0
  9 10  1  0
 10 11  2  0
 10 12  1  0
 12 13  1  0
 13 14  1  0
 13 15  1  0
 11  6  1  0
 15  9  1  0
  1 16  1  0
  2 17  1  0
  3 18  1  0
  4 19  1  0
  7 20  1  0
  8 21  1  0
 11 22  1  0
 12 23  1  0
 12 24  1  0
 13 25  1  0
 14 26  1  0
 15 27  1  0
M  END
>  <Energy>  (1008) 
-24.338092811334256

>  <compound_id>  (1008) 
352

>  <target_id>  (1008) 
1

>  <reference_id>  (1008) 
194

>  <inspiration_ids>  (1008) 
[194, 59]

>  <energy_score>  (1008) 
-25.727528675815684

>  <distance_score>  (1008) 
2.333698501152636

>  <path>  (1008) 
/opt/xchem-fragalysis-2/maxwin/BulkDock/SCRATCH/505736/C352-P194/C352-P194.minimised.mol

>  <scratch_subdir>  (1008) 
/opt/xchem-fragalysis-2/maxwin/BulkDock/SCRATCH/505736/C352-P194

>  <fragmenstein_runtime>  (1008) 
2.017326831817627

>  <fragmenstein_outcome>  (1008) 
too moved

>  <fragmenstein_mode>  (1008) 
expansion

>  <fragmenstein_error>  (1008) 


$$$$
C352-P59
     RDKit          3D

 27 28  0  0  0  0  0  0  0  0999 V2000
   -3.0053   -0.1563   32.2373 O   0  0  0  0  0  0  0  0  0  0  0  0
   -2.5061   -0.3171   33.5987 N   0  0  0  0  0  0  0  0  0  0  0  0
   -2.9182   -1.6553   33.9809 C   0  0  0  0  0  0  0  0  0  0  0  0
   -4.3347   -1.6205   34.0425 O   0  0  0  0  0  0  0  0  0  0  0  0
   -2.4944   -2.5345   32.9526 O   0  0  0  0  0  0  0  0  0  0  0  0
   -1.5059   -3.4582   33.1146 C   0  0  0  0  0  0  0  0  0  0  0  0
   -0.8586   -3.8482   34.2998 C   0  0  0  0  0  0  0  0  0  0  0  0
   -0.0319   -4.9825   34.3135 C   0  0  0  0  0  0  0  0  0  0  0  0
    0.1283   -5.6693   33.1297 C   0  0  0  0  0  0  0  0  0  0  0  0
   -0.5441   -5.2765   31.9798 C   0  0  0  0  0  0  0  0  0  0  0  0
   -1.2742   -4.1314   31.9287 C   0  0  0  0  0  0  0  0  0  0  0  0
   -0.2800   -6.2019   30.8629 C   0  0  0  0  0  0  0  0  0  0  0  0
    1.0034   -6.7875   31.4123 C   0  0  0  0  0  0  0  0  0  0  0  0
    2.1098   -6.0004   30.9956 O   0  0  0  0  0  0  0  0  0  0  0  0
    0.9734   -6.7738   32.8780 N   0  0  0  0  0  0  0  0  0  0  0  0
   -2.1816   -0.2391   31.7113 H   0  0  0  0  0  0  0  0  0  0  0  0
   -3.0603    0.3377   34.1510 H   0  0  0  0  0  0  0  0  0  0  0  0
   -2.5449   -1.9093   34.9745 H   0  0  0  0  0  0  0  0  0  0  0  0
   -4.5445   -1.1879   33.1990 H   0  0  0  0  0  0  0  0  0  0  0  0
   -1.0329   -3.3339   35.2381 H   0  0  0  0  0  0  0  0  0  0  0  0
    0.4613   -5.2992   35.2253 H   0  0  0  0  0  0  0  0  0  0  0  0
   -1.7163   -3.7720   31.0066 H   0  0  0  0  0  0  0  0  0  0  0  0
   -0.1344   -5.6746   29.9188 H   0  0  0  0  0  0  0  0  0  0  0  0
   -1.0794   -6.9459   30.7903 H   0  0  0  0  0  0  0  0  0  0  0  0
    1.1012   -7.7879   31.0024 H   0  0  0  0  0  0  0  0  0  0  0  0
    1.9459   -5.1052   31.3407 H   0  0  0  0  0  0  0  0  0  0  0  0
    1.8952   -6.5994   33.2674 H   0  0  0  0  0  0  0  0  0  0  0  0
  1  2  1  0
  2  3  1  0
  3  4  1  0
  3  5  1  0
  5  6  1  0
  6  7  2  0
  7  8  1  0
  8  9  2  0
  9 10  1  0
 10 11  2  0
 10 12  1  0
 12 13  1  0
 13 14  1  0
 13 15  1  0
 11  6  1  0
 15  9  1  0
  1 16  1  0
  2 17  1  0
  3 18  1  0
  4 19  1  0
  7 20  1  0
  8 21  1  0
 11 22  1  0
 12 23  1  0
 12 24  1  0
 13 25  1  0
 14 26  1  0
 15 27  1  0
M  END
>  <Energy>  (1009) 
-27.415301229366882

>  <compound_id>  (1009) 
352

>  <target_id>  (1009) 
1

>  <reference_id>  (1009) 
59

>  <inspiration_ids>  (1009) 
[194, 59]

>  <energy_score>  (1009) 
-28.804737093849184

>  <distance_score>  (1009) 
2.258471241550654

>  <path>  (1009) 
/opt/xchem-fragalysis-2/maxwin/BulkDock/SCRATCH/505736/C352-P59/C352-P59.minimised.mol

>  <scratch_subdir>  (1009) 
/opt/xchem-fragalysis-2/maxwin/BulkDock/SCRATCH/505736/C352-P59

>  <fragmenstein_runtime>  (1009) 
1.8432376384735107

>  <fragmenstein_outcome>  (1009) 
too moved

>  <fragmenstein_mode>  (1009) 
expansion

>  <fragmenstein_error>  (1009) 


$$$$
C3003-P194
     RDKit          3D

 50 52  0  0  0  0  0  0  0  0999 V2000
    1.5775   -4.8973   37.9602 C   0  0  0  0  0  0  0  0  0  0  0  0
    2.0734   -6.1577   38.6478 C   0  0  0  0  0  0  0  0  0  0  0  0
    0.9896   -6.9058   39.3967 C   0  0  0  0  0  0  0  0  0  0  0  0
    1.6182   -8.2692   39.5454 C   0  0  0  0  0  0  0  0  0  0  0  0
    2.3351   -8.5004   38.3240 O   0  0  0  0  0  0  0  0  0  0  0  0
    2.6889   -7.2363   37.7479 C   0  0  0  0  0  0  0  0  0  0  0  0
    2.2987   -7.1772   36.2914 C   0  0  0  0  0  0  0  0  0  0  0  0
    1.0546   -7.3012   35.7809 C   0  0  0  0  0  0  0  0  0  0  0  0
    0.5917   -7.0496   34.3876 C   0  0  0  0  0  0  0  0  0  0  0  0
   -0.6039   -7.5902   33.9700 C   0  0  0  0  0  0  0  0  0  0  0  0
   -0.8718   -7.4744   32.6344 C   0  0  0  0  0  0  0  0  0  0  0  0
   -1.9245   -8.1011   32.0653 O   0  0  0  0  0  0  0  0  0  0  0  0
   -0.1548   -6.7763   31.7610 N   0  0  0  0  0  0  0  0  0  0  0  0
    0.9124   -6.1549   32.2800 C   0  0  0  0  0  0  0  0  0  0  0  0
    1.5814   -5.1433   31.3862 C   0  0  0  0  0  0  0  0  0  0  0  0
    0.5887   -4.0523   30.9631 C   0  0  0  0  0  0  0  0  0  0  0  0
    0.2071   -3.2177   32.1286 N   0  0  0  0  0  0  0  0  0  0  0  0
   -1.2720   -2.3925   32.0065 S   0  0  0  0  0  0  0  0  0  0  0  0
   -1.3993   -1.6034   33.2132 O   0  0  0  0  0  0  0  0  0  0  0  0
   -2.2853   -3.3539   31.6172 O   0  0  0  0  0  0  0  0  0  0  0  0
   -1.1511   -1.2133   30.7234 C   0  0  0  0  0  0  0  0  0  0  0  0
   -0.5139    0.0420   30.8718 C   0  0  0  0  0  0  0  0  0  0  0  0
   -0.6317    0.6443   29.6425 C   0  0  0  0  0  0  0  0  0  0  0  0
   -1.3051   -0.2417   28.8513 N   0  0  0  0  0  0  0  0  0  0  0  0
   -1.6957   -0.0235   27.4799 C   0  0  0  0  0  0  0  0  0  0  0  0
   -1.6009   -1.3985   29.4714 N   0  0  0  0  0  0  0  0  0  0  0  0
    1.3574   -6.3077   33.5525 N   0  0  0  0  0  0  0  0  0  0  0  0
    0.6961   -5.0716   37.3365 H   0  0  0  0  0  0  0  0  0  0  0  0
    1.2867   -4.1545   38.7117 H   0  0  0  0  0  0  0  0  0  0  0  0
    2.3630   -4.4491   37.3429 H   0  0  0  0  0  0  0  0  0  0  0  0
    2.8409   -5.8598   39.3767 H   0  0  0  0  0  0  0  0  0  0  0  0
    0.7331   -6.4528   40.3584 H   0  0  0  0  0  0  0  0  0  0  0  0
    0.0758   -6.9749   38.7963 H   0  0  0  0  0  0  0  0  0  0  0  0
    0.8789   -9.0527   39.7101 H   0  0  0  0  0  0  0  0  0  0  0  0
    2.3391   -8.2902   40.3702 H   0  0  0  0  0  0  0  0  0  0  0  0
    3.7824   -7.1614   37.7956 H   0  0  0  0  0  0  0  0  0  0  0  0
    3.0975   -6.8646   35.6213 H   0  0  0  0  0  0  0  0  0  0  0  0
    0.2611   -7.6049   36.4630 H   0  0  0  0  0  0  0  0  0  0  0  0
   -1.2543   -8.1431   34.6288 H   0  0  0  0  0  0  0  0  0  0  0  0
   -1.9148   -7.6643   31.1984 H   0  0  0  0  0  0  0  0  0  0  0  0
    1.9581   -5.6588   30.4962 H   0  0  0  0  0  0  0  0  0  0  0  0
    2.4409   -4.7009   31.9030 H   0  0  0  0  0  0  0  0  0  0  0  0
   -0.2927   -4.5023   30.4950 H   0  0  0  0  0  0  0  0  0  0  0  0
    1.0639   -3.3999   30.2222 H   0  0  0  0  0  0  0  0  0  0  0  0
    0.1895   -3.7165   33.0227 H   0  0  0  0  0  0  0  0  0  0  0  0
   -0.0459    0.4445   31.7596 H   0  0  0  0  0  0  0  0  0  0  0  0
   -0.3145    1.6102   29.2725 H   0  0  0  0  0  0  0  0  0  0  0  0
   -2.4116    0.8010   27.4523 H   0  0  0  0  0  0  0  0  0  0  0  0
   -2.1476   -0.9334   27.0841 H   0  0  0  0  0  0  0  0  0  0  0  0
   -0.8003    0.2458   26.9209 H   0  0  0  0  0  0  0  0  0  0  0  0
  1  2  1  0
  2  3  1  0
  3  4  1  0
  4  5  1  0
  5  6  1  0
  6  7  1  0
  7  8  2  3
  8  9  1  0
  9 10  2  0
 10 11  1  0
 11 12  1  0
 11 13  2  0
 13 14  1  0
 14 15  1  0
 15 16  1  0
 16 17  1  0
 17 18  1  0
 18 19  2  0
 18 20  2  0
 18 21  1  0
 21 22  1  0
 22 23  2  0
 23 24  1  0
 24 25  1  0
 24 26  1  0
 14 27  2  0
  6  2  1  0
 27  9  1  0
 26 21  2  0
  1 28  1  0
  1 29  1  0
  1 30  1  0
  2 31  1  0
  3 32  1  0
  3 33  1  0
  4 34  1  0
  4 35  1  0
  6 36  1  0
  7 37  1  0
  8 38  1  0
 10 39  1  0
 12 40  1  0
 15 41  1  0
 15 42  1  0
 16 43  1  0
 16 44  1  0
 17 45  1  0
 22 46  1  0
 23 47  1  0
 25 48  1  0
 25 49  1  0
 25 50  1  0
M  END
>  <Energy>  (1010) 
-16.174399031172467

>  <compound_id>  (1010) 
3003

>  <target_id>  (1010) 
1

>  <reference_id>  (1010) 
194

>  <inspiration_ids>  (1010) 
[194, 145]

>  <energy_score>  (1010) 
-82.44270017696667

>  <distance_score>  (1010) 
1.2548713709266273

>  <path>  (1010) 
/opt/xchem-fragalysis-2/maxwin/BulkDock/SCRATCH/505736/C3003-P194/C3003-P194.minimised.mol

>  <scratch_subdir>  (1010) 
/opt/xchem-fragalysis-2/maxwin/BulkDock/SCRATCH/505736/C3003-P194

>  <fragmenstein_runtime>  (1010) 
7.696834325790405

>  <fragmenstein_outcome>  (1010) 
too moved

>  <fragmenstein_mode>  (1010) 
expansion

>  <fragmenstein_error>  (1010) 


$$$$
C3003-P145
     RDKit          3D

 50 52  0  0  0  0  0  0  0  0999 V2000
    1.3761   -5.1322   38.2353 C   0  0  0  0  0  0  0  0  0  0  0  0
    1.9812   -6.3939   38.8262 C   0  0  0  0  0  0  0  0  0  0  0  0
    1.0422   -7.1624   39.7319 C   0  0  0  0  0  0  0  0  0  0  0  0
    1.7286   -8.5098   39.8082 C   0  0  0  0  0  0  0  0  0  0  0  0
    2.4358   -8.6915   38.5685 O   0  0  0  0  0  0  0  0  0  0  0  0
    2.4081   -7.4632   37.8247 C   0  0  0  0  0  0  0  0  0  0  0  0
    1.4466   -7.6330   36.6749 C   0  0  0  0  0  0  0  0  0  0  0  0
    1.5298   -6.9097   35.5359 C   0  0  0  0  0  0  0  0  0  0  0  0
    0.6285   -6.8373   34.3608 C   0  0  0  0  0  0  0  0  0  0  0  0
   -0.4893   -7.6067   34.1680 C   0  0  0  0  0  0  0  0  0  0  0  0
   -1.0420   -7.5306   32.9108 C   0  0  0  0  0  0  0  0  0  0  0  0
   -2.0635   -8.3536   32.5772 O   0  0  0  0  0  0  0  0  0  0  0  0
   -0.6422   -6.7372   31.9136 N   0  0  0  0  0  0  0  0  0  0  0  0
    0.4125   -5.9710   32.2123 C   0  0  0  0  0  0  0  0  0  0  0  0
    0.9283   -5.0283   31.1583 C   0  0  0  0  0  0  0  0  0  0  0  0
   -0.0414   -3.9035   30.8875 C   0  0  0  0  0  0  0  0  0  0  0  0
   -0.1610   -3.0529   32.0909 N   0  0  0  0  0  0  0  0  0  0  0  0
   -1.4967   -2.0200   32.0703 S   0  0  0  0  0  0  0  0  0  0  0  0
   -1.4608   -1.2552   33.2963 O   0  0  0  0  0  0  0  0  0  0  0  0
   -2.6426   -2.8160   31.6828 O   0  0  0  0  0  0  0  0  0  0  0  0
   -1.2449   -0.8567   30.7977 C   0  0  0  0  0  0  0  0  0  0  0  0
   -0.6731    0.4220   30.9855 C   0  0  0  0  0  0  0  0  0  0  0  0
   -0.6361    0.9760   29.7285 C   0  0  0  0  0  0  0  0  0  0  0  0
   -1.1788    0.0455   28.8921 N   0  0  0  0  0  0  0  0  0  0  0  0
   -1.4009    0.2002   27.4774 C   0  0  0  0  0  0  0  0  0  0  0  0
   -1.4858   -1.1095   29.5011 N   0  0  0  0  0  0  0  0  0  0  0  0
    1.0724   -6.0040   33.3911 N   0  0  0  0  0  0  0  0  0  0  0  0
    0.4201   -5.3181   37.7352 H   0  0  0  0  0  0  0  0  0  0  0  0
    1.1800   -4.4053   39.0314 H   0  0  0  0  0  0  0  0  0  0  0  0
    2.0623   -4.6625   37.5234 H   0  0  0  0  0  0  0  0  0  0  0  0
    2.8637   -6.1093   39.4164 H   0  0  0  0  0  0  0  0  0  0  0  0
    0.9083   -6.7036   40.7156 H   0  0  0  0  0  0  0  0  0  0  0  0
    0.0538   -7.2690   39.2713 H   0  0  0  0  0  0  0  0  0  0  0  0
    1.0222   -9.3293   39.9583 H   0  0  0  0  0  0  0  0  0  0  0  0
    2.4671   -8.5335   40.6164 H   0  0  0  0  0  0  0  0  0  0  0  0
    3.4187   -7.2719   37.4464 H   0  0  0  0  0  0  0  0  0  0  0  0
    0.6097   -8.3031   36.8470 H   0  0  0  0  0  0  0  0  0  0  0  0
    2.3728   -6.2224   35.4423 H   0  0  0  0  0  0  0  0  0  0  0  0
   -0.8714   -8.2907   34.9106 H   0  0  0  0  0  0  0  0  0  0  0  0
   -2.3979   -7.9586   31.7568 H   0  0  0  0  0  0  0  0  0  0  0  0
    1.1060   -5.5854   30.2333 H   0  0  0  0  0  0  0  0  0  0  0  0
    1.8753   -4.5882   31.4880 H   0  0  0  0  0  0  0  0  0  0  0  0
   -1.0096   -4.3182   30.6007 H   0  0  0  0  0  0  0  0  0  0  0  0
    0.3338   -3.2941   30.0588 H   0  0  0  0  0  0  0  0  0  0  0  0
   -0.1941   -3.5588   32.9810 H   0  0  0  0  0  0  0  0  0  0  0  0
   -0.3378    0.8672   31.9120 H   0  0  0  0  0  0  0  0  0  0  0  0
   -0.2920    1.9350   29.3655 H   0  0  0  0  0  0  0  0  0  0  0  0
   -1.9086    1.1517   27.3022 H   0  0  0  0  0  0  0  0  0  0  0  0
   -2.0144   -0.6260   27.1187 H   0  0  0  0  0  0  0  0  0  0  0  0
   -0.4194    0.2069   27.0071 H   0  0  0  0  0  0  0  0  0  0  0  0
  1  2  1  0
  2  3  1  0
  3  4  1  0
  4  5  1  0
  5  6  1  0
  6  7  1  0
  7  8  2  3
  8  9  1  0
  9 10  2  0
 10 11  1  0
 11 12  1  0
 11 13  2  0
 13 14  1  0
 14 15  1  0
 15 16  1  0
 16 17  1  0
 17 18  1  0
 18 19  2  0
 18 20  2  0
 18 21  1  0
 21 22  1  0
 22 23  2  0
 23 24  1  0
 24 25  1  0
 24 26  1  0
 14 27  2  0
  6  2  1  0
 27  9  1  0
 26 21  2  0
  1 28  1  0
  1 29  1  0
  1 30  1  0
  2 31  1  0
  3 32  1  0
  3 33  1  0
  4 34  1  0
  4 35  1  0
  6 36  1  0
  7 37  1  0
  8 38  1  0
 10 39  1  0
 12 40  1  0
 15 41  1  0
 15 42  1  0
 16 43  1  0
 16 44  1  0
 17 45  1  0
 22 46  1  0
 23 47  1  0
 25 48  1  0
 25 49  1  0
 25 50  1  0
M  END
>  <Energy>  (1011) 
-19.947986026577141

>  <compound_id>  (1011) 
3003

>  <target_id>  (1011) 
1

>  <reference_id>  (1011) 
145

>  <inspiration_ids>  (1011) 
[194, 145]

>  <energy_score>  (1011) 
-86.21628717237256

>  <distance_score>  (1011) 
1.2532389555827668

>  <path>  (1011) 
/opt/xchem-fragalysis-2/maxwin/BulkDock/SCRATCH/505736/C3003-P145/C3003-P145.minimised.mol

>  <scratch_subdir>  (1011) 
/opt/xchem-fragalysis-2/maxwin/BulkDock/SCRATCH/505736/C3003-P145

>  <fragmenstein_runtime>  (1011) 
7.879588603973389

>  <fragmenstein_outcome>  (1011) 
too moved

>  <fragmenstein_mode>  (1011) 
expansion

>  <fragmenstein_error>  (1011) 


$$$$
C3038-P194
     RDKit          3D

 51 53  0  0  0  0  0  0  0  0999 V2000
    0.4244    0.7338   32.8484 C   0  0  0  0  0  0  0  0  0  0  0  0
    0.5015    0.8742   31.4101 N   0  0  0  0  0  0  0  0  0  0  0  0
   -0.3633    0.3110   30.5286 C   0  0  0  0  0  0  0  0  0  0  0  0
   -1.1806   -0.8714   30.5288 C   0  0  0  0  0  0  0  0  0  0  0  0
   -1.2883   -2.1454   31.7469 S   0  0  0  0  0  0  0  0  0  0  0  0
   -1.3277   -1.4630   33.0223 O   0  0  0  0  0  0  0  0  0  0  0  0
   -2.3699   -3.0335   31.3611 O   0  0  0  0  0  0  0  0  0  0  0  0
    0.1551   -3.0326   31.6901 N   0  0  0  0  0  0  0  0  0  0  0  0
    0.3788   -3.8690   30.4893 C   0  0  0  0  0  0  0  0  0  0  0  0
    1.2306   -5.0910   30.8394 C   0  0  0  0  0  0  0  0  0  0  0  0
    0.4753   -6.0438   31.7238 C   0  0  0  0  0  0  0  0  0  0  0  0
    0.6384   -5.9162   33.0561 N   0  0  0  0  0  0  0  0  0  0  0  0
   -0.1797   -6.6357   33.8468 C   0  0  0  0  0  0  0  0  0  0  0  0
   -0.0822   -6.4260   35.3277 C   0  0  0  0  0  0  0  0  0  0  0  0
   -1.0987   -7.5203   33.3312 C   0  0  0  0  0  0  0  0  0  0  0  0
   -1.1217   -7.6336   31.9641 C   0  0  0  0  0  0  0  0  0  0  0  0
   -1.9696   -8.5004   31.3414 O   0  0  0  0  0  0  0  0  0  0  0  0
   -0.3568   -6.9180   31.1342 N   0  0  0  0  0  0  0  0  0  0  0  0
   -1.8041   -1.0085   29.3451 N   0  0  0  0  0  0  0  0  0  0  0  0
   -1.4110    0.0505   28.6258 N   0  0  0  0  0  0  0  0  0  0  0  0
   -0.5445    0.8821   29.2759 C   0  0  0  0  0  0  0  0  0  0  0  0
    0.0458    2.1035   28.6148 C   0  0  0  0  0  0  0  0  0  0  0  0
   -0.9650    3.0809   28.0092 C   0  0  0  0  0  0  0  0  0  0  0  0
   -1.5551    2.6035   26.6887 C   0  0  0  0  0  0  0  0  0  0  0  0
   -2.2430    3.6787   26.0597 O   0  0  0  0  0  0  0  0  0  0  0  0
   -2.4981    1.4175   26.8380 C   0  0  0  0  0  0  0  0  0  0  0  0
   -1.7778    0.1338   27.2294 C   0  0  0  0  0  0  0  0  0  0  0  0
    1.0869    1.4704   33.3161 H   0  0  0  0  0  0  0  0  0  0  0  0
   -0.5861    0.9317   33.2175 H   0  0  0  0  0  0  0  0  0  0  0  0
    0.7799   -0.2491   33.1662 H   0  0  0  0  0  0  0  0  0  0  0  0
    0.9386    1.7569   31.1526 H   0  0  0  0  0  0  0  0  0  0  0  0
    0.9471   -2.4611   31.9808 H   0  0  0  0  0  0  0  0  0  0  0  0
    0.9065   -3.2609   29.7461 H   0  0  0  0  0  0  0  0  0  0  0  0
   -0.5673   -4.1950   30.0470 H   0  0  0  0  0  0  0  0  0  0  0  0
    2.1579   -4.7845   31.3379 H   0  0  0  0  0  0  0  0  0  0  0  0
    1.5163   -5.6137   29.9191 H   0  0  0  0  0  0  0  0  0  0  0  0
    0.1296   -7.3746   35.8315 H   0  0  0  0  0  0  0  0  0  0  0  0
   -1.0207   -6.0159   35.7134 H   0  0  0  0  0  0  0  0  0  0  0  0
    0.7229   -5.7249   35.5694 H   0  0  0  0  0  0  0  0  0  0  0  0
   -1.7505   -8.0882   33.9759 H   0  0  0  0  0  0  0  0  0  0  0  0
   -2.5809   -8.8842   31.9978 H   0  0  0  0  0  0  0  0  0  0  0  0
    0.7635    1.7797   27.8503 H   0  0  0  0  0  0  0  0  0  0  0  0
    0.6299    2.6642   29.3528 H   0  0  0  0  0  0  0  0  0  0  0  0
   -0.4522    4.0349   27.8269 H   0  0  0  0  0  0  0  0  0  0  0  0
   -1.7658    3.3148   28.7180 H   0  0  0  0  0  0  0  0  0  0  0  0
   -0.7379    2.3456   26.0086 H   0  0  0  0  0  0  0  0  0  0  0  0
   -2.9602    3.9914   26.6448 H   0  0  0  0  0  0  0  0  0  0  0  0
   -3.0017    1.2653   25.8806 H   0  0  0  0  0  0  0  0  0  0  0  0
   -3.2923    1.6676   27.5459 H   0  0  0  0  0  0  0  0  0  0  0  0
   -0.8386    0.0434   26.6909 H   0  0  0  0  0  0  0  0  0  0  0  0
   -2.3820   -0.7448   26.9936 H   0  0  0  0  0  0  0  0  0  0  0  0
  1  2  1  0
  2  3  1  0
  3  4  1  0
  4  5  1  0
  5  6  2  0
  5  7  2  0
  5  8  1  0
  8  9  1  0
  9 10  1  0
 10 11  1  0
 11 12  2  0
 12 13  1  0
 13 14  1  0
 13 15  2  0
 15 16  1  0
 16 17  1  0
 16 18  2  0
  4 19  2  0
 19 20  1  0
 20 21  1  0
 21 22  1  0
 22 23  1  0
 23 24  1  0
 24 25  1  0
 24 26  1  0
 26 27  1  0
 21  3  2  0
 18 11  1  0
 27 20  1  0
  1 28  1  0
  1 29  1  0
  1 30  1  0
  2 31  1  0
  8 32  1  0
  9 33  1  0
  9 34  1  0
 10 35  1  0
 10 36  1  0
 14 37  1  0
 14 38  1  0
 14 39  1  0
 15 40  1  0
 17 41  1  0
 22 42  1  0
 22 43  1  0
 23 44  1  0
 23 45  1  0
 24 46  1  0
 25 47  1  0
 26 48  1  0
 26 49  1  0
 27 50  1  0
 27 51  1  0
M  END
>  <Energy>  (1012) 
7.8103443458576338

>  <compound_id>  (1012) 
3038

>  <target_id>  (1012) 
1

>  <reference_id>  (1012) 
194

>  <inspiration_ids>  (1012) 
[194, 147]

>  <energy_score>  (1012) 
-63.84663674261867

>  <distance_score>  (1012) 
0.9192315503111724

>  <path>  (1012) 
/opt/xchem-fragalysis-2/maxwin/BulkDock/SCRATCH/505736/C3038-P194/C3038-P194.minimised.mol

>  <scratch_subdir>  (1012) 
/opt/xchem-fragalysis-2/maxwin/BulkDock/SCRATCH/505736/C3038-P194

>  <fragmenstein_runtime>  (1012) 
3.793957471847534

>  <fragmenstein_outcome>  (1012) 
acceptable

>  <fragmenstein_mode>  (1012) 
expansion

>  <fragmenstein_error>  (1012) 


$$$$
C3038-P147
     RDKit          3D

 51 53  0  0  0  0  0  0  0  0999 V2000
    0.5209    0.7363   32.8583 C   0  0  0  0  0  0  0  0  0  0  0  0
    0.5442    0.9412   31.4274 N   0  0  0  0  0  0  0  0  0  0  0  0
   -0.3099    0.3801   30.5359 C   0  0  0  0  0  0  0  0  0  0  0  0
   -1.1269   -0.8028   30.5205 C   0  0  0  0  0  0  0  0  0  0  0  0
   -1.2645   -2.0826   31.7324 S   0  0  0  0  0  0  0  0  0  0  0  0
   -1.2955   -1.4044   33.0103 O   0  0  0  0  0  0  0  0  0  0  0  0
   -2.3649   -2.9436   31.3402 O   0  0  0  0  0  0  0  0  0  0  0  0
    0.1555   -3.0038   31.6801 N   0  0  0  0  0  0  0  0  0  0  0  0
    0.3589   -3.8558   30.4868 C   0  0  0  0  0  0  0  0  0  0  0  0
    1.1911   -5.0870   30.8472 C   0  0  0  0  0  0  0  0  0  0  0  0
    0.4247   -6.0271   31.7362 C   0  0  0  0  0  0  0  0  0  0  0  0
    0.5923   -5.8986   33.0679 N   0  0  0  0  0  0  0  0  0  0  0  0
   -0.2110   -6.6307   33.8624 C   0  0  0  0  0  0  0  0  0  0  0  0
   -0.1010   -6.4266   35.3432 C   0  0  0  0  0  0  0  0  0  0  0  0
   -1.1223   -7.5267   33.3518 C   0  0  0  0  0  0  0  0  0  0  0  0
   -1.1567   -7.6333   31.9846 C   0  0  0  0  0  0  0  0  0  0  0  0
   -1.9978   -8.5100   31.3655 O   0  0  0  0  0  0  0  0  0  0  0  0
   -0.4073   -6.9051   31.1519 N   0  0  0  0  0  0  0  0  0  0  0  0
   -1.7350   -0.9301   29.3280 N   0  0  0  0  0  0  0  0  0  0  0  0
   -1.3395    0.1357   28.6214 N   0  0  0  0  0  0  0  0  0  0  0  0
   -0.4777    0.9607   29.2842 C   0  0  0  0  0  0  0  0  0  0  0  0
    0.1320    2.1799   28.6336 C   0  0  0  0  0  0  0  0  0  0  0  0
   -0.8479    3.1559   27.9752 C   0  0  0  0  0  0  0  0  0  0  0  0
   -1.3925    2.6692   26.6409 C   0  0  0  0  0  0  0  0  0  0  0  0
   -2.0466    3.7442   25.9752 O   0  0  0  0  0  0  0  0  0  0  0  0
   -2.3558    1.4990   26.7755 C   0  0  0  0  0  0  0  0  0  0  0  0
   -1.6705    0.2116   27.2166 C   0  0  0  0  0  0  0  0  0  0  0  0
    1.2151    1.4391   33.3320 H   0  0  0  0  0  0  0  0  0  0  0  0
   -0.4705    0.9372   33.2741 H   0  0  0  0  0  0  0  0  0  0  0  0
    0.8681   -0.2662   33.1194 H   0  0  0  0  0  0  0  0  0  0  0  0
    0.9898    1.8235   31.1847 H   0  0  0  0  0  0  0  0  0  0  0  0
    0.9638   -2.4575   31.9731 H   0  0  0  0  0  0  0  0  0  0  0  0
    0.8942   -3.2641   29.7358 H   0  0  0  0  0  0  0  0  0  0  0  0
   -0.5943   -4.1700   30.0516 H   0  0  0  0  0  0  0  0  0  0  0  0
    2.1209   -4.7886   31.3459 H   0  0  0  0  0  0  0  0  0  0  0  0
    1.4732   -5.6177   29.9311 H   0  0  0  0  0  0  0  0  0  0  0  0
    0.1364   -7.3731   35.8394 H   0  0  0  0  0  0  0  0  0  0  0  0
   -1.0436   -6.0384   35.7417 H   0  0  0  0  0  0  0  0  0  0  0  0
    0.6916   -5.7096   35.5798 H   0  0  0  0  0  0  0  0  0  0  0  0
   -1.7580   -8.1090   33.9998 H   0  0  0  0  0  0  0  0  0  0  0  0
   -2.6053   -8.8961   32.0238 H   0  0  0  0  0  0  0  0  0  0  0  0
    0.8811    1.8495   27.9027 H   0  0  0  0  0  0  0  0  0  0  0  0
    0.6846    2.7482   29.3900 H   0  0  0  0  0  0  0  0  0  0  0  0
   -0.3195    4.1030   27.8011 H   0  0  0  0  0  0  0  0  0  0  0  0
   -1.6762    3.4087   28.6426 H   0  0  0  0  0  0  0  0  0  0  0  0
   -0.5529    2.3961   25.9961 H   0  0  0  0  0  0  0  0  0  0  0  0
   -2.7965    4.0559   26.5159 H   0  0  0  0  0  0  0  0  0  0  0  0
   -2.8239    1.3354   25.8014 H   0  0  0  0  0  0  0  0  0  0  0  0
   -3.1722    1.7792   27.4457 H   0  0  0  0  0  0  0  0  0  0  0  0
   -0.7155    0.0995   26.7128 H   0  0  0  0  0  0  0  0  0  0  0  0
   -2.2816   -0.6601   26.9746 H   0  0  0  0  0  0  0  0  0  0  0  0
  1  2  1  0
  2  3  1  0
  3  4  1  0
  4  5  1  0
  5  6  2  0
  5  7  2  0
  5  8  1  0
  8  9  1  0
  9 10  1  0
 10 11  1  0
 11 12  2  0
 12 13  1  0
 13 14  1  0
 13 15  2  0
 15 16  1  0
 16 17  1  0
 16 18  2  0
  4 19  2  0
 19 20  1  0
 20 21  1  0
 21 22  1  0
 22 23  1  0
 23 24  1  0
 24 25  1  0
 24 26  1  0
 26 27  1  0
 21  3  2  0
 18 11  1  0
 27 20  1  0
  1 28  1  0
  1 29  1  0
  1 30  1  0
  2 31  1  0
  8 32  1  0
  9 33  1  0
  9 34  1  0
 10 35  1  0
 10 36  1  0
 14 37  1  0
 14 38  1  0
 14 39  1  0
 15 40  1  0
 17 41  1  0
 22 42  1  0
 22 43  1  0
 23 44  1  0
 23 45  1  0
 24 46  1  0
 25 47  1  0
 26 48  1  0
 26 49  1  0
 27 50  1  0
 27 51  1  0
M  END
>  <Energy>  (1013) 
8.4206599864472267

>  <compound_id>  (1013) 
3038

>  <target_id>  (1013) 
1

>  <reference_id>  (1013) 
147

>  <inspiration_ids>  (1013) 
[194, 147]

>  <energy_score>  (1013) 
-63.236321102030345

>  <distance_score>  (1013) 
0.9435515780169829

>  <path>  (1013) 
/opt/xchem-fragalysis-2/maxwin/BulkDock/SCRATCH/505736/C3038-P147/C3038-P147.minimised.mol

>  <scratch_subdir>  (1013) 
/opt/xchem-fragalysis-2/maxwin/BulkDock/SCRATCH/505736/C3038-P147

>  <fragmenstein_runtime>  (1013) 
4.29784083366394

>  <fragmenstein_outcome>  (1013) 
acceptable

>  <fragmenstein_mode>  (1013) 
expansion

>  <fragmenstein_error>  (1013) 


$$$$
C441-P194
     RDKit          3D

 60 63  0  0  0  0  0  0  0  0999 V2000
    5.8007   -9.7510   35.2610 C   0  0  0  0  0  0  0  0  0  0  0  0
    5.0268   -8.7716   36.0946 C   0  0  0  0  0  0  0  0  0  0  0  0
    4.7627   -9.0565   37.4300 C   0  0  0  0  0  0  0  0  0  0  0  0
    4.0234   -8.1358   38.1524 C   0  0  0  0  0  0  0  0  0  0  0  0
    3.6168   -6.9521   37.5326 C   0  0  0  0  0  0  0  0  0  0  0  0
    3.9379   -6.7078   36.1979 C   0  0  0  0  0  0  0  0  0  0  0  0
    3.6066   -5.4407   35.6893 N   0  0  0  0  0  0  0  0  0  0  0  0
    3.7525   -4.8536   34.2369 C   0  0  0  0  0  0  0  0  0  0  0  0
    4.2412   -5.3172   33.2753 O   0  0  0  0  0  0  0  0  0  0  0  0
    3.2003   -3.3747   34.2554 C   0  0  0  0  0  0  0  0  0  0  0  0
    1.8672   -3.1438   34.9388 C   0  0  0  0  0  0  0  0  0  0  0  0
    1.3470   -1.8288   34.3186 C   0  0  0  0  0  0  0  0  0  0  0  0
    2.2857   -1.4846   33.1450 C   0  0  0  0  0  0  0  0  0  0  0  0
    1.5964   -0.9007   31.9833 N   0  0  0  0  0  0  0  0  0  0  0  0
    0.9588    0.3295   31.9606 C   0  0  0  0  0  0  0  0  0  0  0  0
   -0.2578    0.0878   31.3543 C   0  0  0  0  0  0  0  0  0  0  0  0
   -0.1548   -1.2573   30.9723 C   0  0  0  0  0  0  0  0  0  0  0  0
   -1.4113   -2.3824   30.7087 S   0  0  0  0  0  0  0  0  0  0  0  0
   -1.7142   -2.8984   32.0267 O   0  0  0  0  0  0  0  0  0  0  0  0
   -2.3965   -1.6812   29.9352 O   0  0  0  0  0  0  0  0  0  0  0  0
   -0.7069   -3.5600   29.7405 N   0  0  0  0  0  0  0  0  0  0  0  0
   -0.3874   -4.8378   30.3516 C   0  0  0  0  0  0  0  0  0  0  0  0
    0.9239   -4.9997   31.0985 C   0  0  0  0  0  0  0  0  0  0  0  0
    0.6703   -6.2114   31.9677 C   0  0  0  0  0  0  0  0  0  0  0  0
    0.5288   -5.9864   33.2878 N   0  0  0  0  0  0  0  0  0  0  0  0
   -0.3484   -6.7597   33.9541 C   0  0  0  0  0  0  0  0  0  0  0  0
   -0.5213   -6.5075   35.4192 C   0  0  0  0  0  0  0  0  0  0  0  0
   -1.1106   -7.7043   33.3100 C   0  0  0  0  0  0  0  0  0  0  0  0
   -0.7779   -7.9384   32.0067 C   0  0  0  0  0  0  0  0  0  0  0  0
   -1.3665   -8.9224   31.2864 O   0  0  0  0  0  0  0  0  0  0  0  0
    0.1419   -7.2700   31.3202 N   0  0  0  0  0  0  0  0  0  0  0  0
    1.1068   -1.6974   31.0377 N   0  0  0  0  0  0  0  0  0  0  0  0
    2.9286   -2.8042   32.9001 N   0  0  0  0  0  0  0  0  0  0  0  0
    4.6065   -7.6272   35.4753 N   0  0  0  0  0  0  0  0  0  0  0  0
    5.2720  -10.7081   35.2150 H   0  0  0  0  0  0  0  0  0  0  0  0
    6.7950   -9.9092   35.6901 H   0  0  0  0  0  0  0  0  0  0  0  0
    5.9261   -9.3813   34.2386 H   0  0  0  0  0  0  0  0  0  0  0  0
    5.1049   -9.9786   37.8877 H   0  0  0  0  0  0  0  0  0  0  0  0
    3.7734   -8.3252   39.1929 H   0  0  0  0  0  0  0  0  0  0  0  0
    3.0649   -6.2214   38.1154 H   0  0  0  0  0  0  0  0  0  0  0  0
    3.2065   -4.7440   36.2961 H   0  0  0  0  0  0  0  0  0  0  0  0
    3.9814   -2.7693   34.7353 H   0  0  0  0  0  0  0  0  0  0  0  0
    1.9638   -3.0383   36.0241 H   0  0  0  0  0  0  0  0  0  0  0  0
    1.1586   -3.9511   34.7428 H   0  0  0  0  0  0  0  0  0  0  0  0
    0.3054   -1.9639   34.0057 H   0  0  0  0  0  0  0  0  0  0  0  0
    1.3646   -1.0239   35.0624 H   0  0  0  0  0  0  0  0  0  0  0  0
    3.0459   -0.7556   33.4519 H   0  0  0  0  0  0  0  0  0  0  0  0
    1.3267    1.1674   32.5361 H   0  0  0  0  0  0  0  0  0  0  0  0
   -1.1303    0.7222   31.3415 H   0  0  0  0  0  0  0  0  0  0  0  0
   -1.1843   -3.5921   28.8316 H   0  0  0  0  0  0  0  0  0  0  0  0
   -0.4166   -5.5787   29.5470 H   0  0  0  0  0  0  0  0  0  0  0  0
   -1.2217   -5.0908   31.0164 H   0  0  0  0  0  0  0  0  0  0  0  0
    1.7676   -5.1665   30.4234 H   0  0  0  0  0  0  0  0  0  0  0  0
    1.1270   -4.1425   31.7324 H   0  0  0  0  0  0  0  0  0  0  0  0
    0.3349   -5.9594   35.8236 H   0  0  0  0  0  0  0  0  0  0  0  0
   -0.5943   -7.4539   35.9649 H   0  0  0  0  0  0  0  0  0  0  0  0
   -1.4253   -5.9201   35.5983 H   0  0  0  0  0  0  0  0  0  0  0  0
   -1.8754   -8.2714   33.8137 H   0  0  0  0  0  0  0  0  0  0  0  0
   -0.6518   -9.1179   30.6472 H   0  0  0  0  0  0  0  0  0  0  0  0
    3.7815   -2.7120   32.3537 H   0  0  0  0  0  0  0  0  0  0  0  0
  1  2  1  0
  2  3  2  0
  3  4  1  0
  4  5  2  0
  5  6  1  0
  6  7  1  0
  7  8  1  0
  8  9  2  0
  8 10  1  0
 10 11  1  0
 11 12  1  0
 12 13  1  0
 13 14  1  0
 14 15  1  0
 15 16  2  0
 16 17  1  0
 17 18  1  0
 18 19  2  0
 18 20  2  0
 18 21  1  0
 21 22  1  0
 22 23  1  0
 23 24  1  0
 24 25  2  0
 25 26  1  0
 26 27  1  0
 26 28  2  0
 28 29  1  0
 29 30  1  0
 29 31  2  0
 17 32  2  0
 13 33  1  0
  6 34  2  0
 34  2  1  0
 33 10  1  0
 32 14  1  0
 31 24  1  0
  1 35  1  0
  1 36  1  0
  1 37  1  0
  3 38  1  0
  4 39  1  0
  5 40  1  0
  7 41  1  0
 10 42  1  0
 11 43  1  0
 11 44  1  0
 12 45  1  0
 12 46  1  0
 13 47  1  0
 15 48  1  0
 16 49  1  0
 21 50  1  0
 22 51  1  0
 22 52  1  0
 23 53  1  0
 23 54  1  0
 27 55  1  0
 27 56  1  0
 27 57  1  0
 28 58  1  0
 30 59  1  0
 33 60  1  0
M  END
>  <Energy>  (1014) 
86.551794050388068

>  <compound_id>  (1014) 
441

>  <target_id>  (1014) 
1

>  <reference_id>  (1014) 
194

>  <inspiration_ids>  (1014) 
[194, 148]

>  <energy_score>  (1014) 
2.51538702108175

>  <distance_score>  (1014) 
2.6424577513389256

>  <path>  (1014) 
/opt/xchem-fragalysis-2/maxwin/BulkDock/SCRATCH/505736/C441-P194/C441-P194.minimised.mol

>  <scratch_subdir>  (1014) 
/opt/xchem-fragalysis-2/maxwin/BulkDock/SCRATCH/505736/C441-P194

>  <fragmenstein_runtime>  (1014) 
7.995445966720581

>  <fragmenstein_outcome>  (1014) 
too moved

>  <fragmenstein_mode>  (1014) 
expansion

>  <fragmenstein_error>  (1014) 


$$$$
C441-P148
     RDKit          3D

 60 63  0  0  0  0  0  0  0  0999 V2000
    5.9025  -10.0535   35.9508 C   0  0  0  0  0  0  0  0  0  0  0  0
    5.0118   -8.9647   36.4715 C   0  0  0  0  0  0  0  0  0  0  0  0
    4.5804   -8.9892   37.7913 C   0  0  0  0  0  0  0  0  0  0  0  0
    3.7426   -7.9683   38.2197 C   0  0  0  0  0  0  0  0  0  0  0  0
    3.3859   -6.9448   37.3366 C   0  0  0  0  0  0  0  0  0  0  0  0
    3.8669   -6.9714   36.0399 C   0  0  0  0  0  0  0  0  0  0  0  0
    3.5873   -5.9667   35.1134 N   0  0  0  0  0  0  0  0  0  0  0  0
    2.7501   -4.6420   35.2647 C   0  0  0  0  0  0  0  0  0  0  0  0
    2.1124   -4.2453   36.1667 O   0  0  0  0  0  0  0  0  0  0  0  0
    2.8389   -3.8977   33.8782 C   0  0  0  0  0  0  0  0  0  0  0  0
    4.2332   -3.4735   33.4987 C   0  0  0  0  0  0  0  0  0  0  0  0
    3.9816   -2.4209   32.4069 C   0  0  0  0  0  0  0  0  0  0  0  0
    2.7526   -1.6528   32.8902 C   0  0  0  0  0  0  0  0  0  0  0  0
    1.8156   -1.1835   31.8703 N   0  0  0  0  0  0  0  0  0  0  0  0
    1.3955    0.0943   31.5897 C   0  0  0  0  0  0  0  0  0  0  0  0
    0.1067   -0.0279   31.1069 C   0  0  0  0  0  0  0  0  0  0  0  0
   -0.1073   -1.4114   31.1078 C   0  0  0  0  0  0  0  0  0  0  0  0
   -1.5748   -2.2947   31.0263 S   0  0  0  0  0  0  0  0  0  0  0  0
   -2.2530   -1.9623   32.2581 O   0  0  0  0  0  0  0  0  0  0  0  0
   -2.0970   -2.0386   29.7177 O   0  0  0  0  0  0  0  0  0  0  0  0
   -1.0918   -3.9196   31.1162 N   0  0  0  0  0  0  0  0  0  0  0  0
   -0.1638   -4.3755   30.0196 C   0  0  0  0  0  0  0  0  0  0  0  0
    0.9797   -5.2327   30.5642 C   0  0  0  0  0  0  0  0  0  0  0  0
    0.4242   -6.2416   31.5211 C   0  0  0  0  0  0  0  0  0  0  0  0
    0.3307   -5.8702   32.8188 N   0  0  0  0  0  0  0  0  0  0  0  0
   -0.4795   -6.5978   33.6180 C   0  0  0  0  0  0  0  0  0  0  0  0
   -0.5599   -6.2136   35.0651 C   0  0  0  0  0  0  0  0  0  0  0  0
   -1.1769   -7.6791   33.1381 C   0  0  0  0  0  0  0  0  0  0  0  0
   -0.9339   -7.9943   31.8287 C   0  0  0  0  0  0  0  0  0  0  0  0
   -1.4399   -9.1207   31.2798 O   0  0  0  0  0  0  0  0  0  0  0  0
   -0.1428   -7.3285   30.9934 N   0  0  0  0  0  0  0  0  0  0  0  0
    1.0153   -2.0985   31.3403 N   0  0  0  0  0  0  0  0  0  0  0  0
    2.0683   -2.6218   33.8199 N   0  0  0  0  0  0  0  0  0  0  0  0
    4.6501   -7.9843   35.5941 N   0  0  0  0  0  0  0  0  0  0  0  0
    6.8425  -10.0729   36.5108 H   0  0  0  0  0  0  0  0  0  0  0  0
    6.1376   -9.8913   34.8938 H   0  0  0  0  0  0  0  0  0  0  0  0
    5.4076  -11.0251   36.0436 H   0  0  0  0  0  0  0  0  0  0  0  0
    4.8719   -9.7856   38.4678 H   0  0  0  0  0  0  0  0  0  0  0  0
    3.3682   -7.9584   39.2406 H   0  0  0  0  0  0  0  0  0  0  0  0
    2.7461   -6.1400   37.6845 H   0  0  0  0  0  0  0  0  0  0  0  0
    3.9468   -6.0333   34.1755 H   0  0  0  0  0  0  0  0  0  0  0  0
    2.4509   -4.5771   33.1190 H   0  0  0  0  0  0  0  0  0  0  0  0
    4.8457   -4.2946   33.1141 H   0  0  0  0  0  0  0  0  0  0  0  0
    4.7620   -3.0235   34.3479 H   0  0  0  0  0  0  0  0  0  0  0  0
    4.8490   -1.7665   32.2757 H   0  0  0  0  0  0  0  0  0  0  0  0
    3.7892   -2.9218   31.4500 H   0  0  0  0  0  0  0  0  0  0  0  0
    3.0522   -0.7796   33.4809 H   0  0  0  0  0  0  0  0  0  0  0  0
    1.9790    0.9599   31.8724 H   0  0  0  0  0  0  0  0  0  0  0  0
   -0.6013    0.7603   30.9024 H   0  0  0  0  0  0  0  0  0  0  0  0
   -0.6967   -4.0631   32.0532 H   0  0  0  0  0  0  0  0  0  0  0  0
    0.2486   -3.5457   29.4381 H   0  0  0  0  0  0  0  0  0  0  0  0
   -0.7459   -4.9515   29.2985 H   0  0  0  0  0  0  0  0  0  0  0  0
    1.4995   -5.7363   29.7427 H   0  0  0  0  0  0  0  0  0  0  0  0
    1.7235   -4.6140   31.0693 H   0  0  0  0  0  0  0  0  0  0  0  0
   -1.5665   -6.3835   35.4579 H   0  0  0  0  0  0  0  0  0  0  0  0
   -0.3306   -5.1514   35.1910 H   0  0  0  0  0  0  0  0  0  0  0  0
    0.1533   -6.8041   35.6477 H   0  0  0  0  0  0  0  0  0  0  0  0
   -1.8298   -8.2758   33.7564 H   0  0  0  0  0  0  0  0  0  0  0  0
   -0.7177   -9.3689   30.6655 H   0  0  0  0  0  0  0  0  0  0  0  0
    1.1309   -2.8188   33.4645 H   0  0  0  0  0  0  0  0  0  0  0  0
  1  2  1  0
  2  3  2  0
  3  4  1  0
  4  5  2  0
  5  6  1  0
  6  7  1  0
  7  8  1  0
  8  9  2  0
  8 10  1  0
 10 11  1  0
 11 12  1  0
 12 13  1  0
 13 14  1  0
 14 15  1  0
 15 16  2  0
 16 17  1  0
 17 18  1  0
 18 19  2  0
 18 20  2  0
 18 21  1  0
 21 22  1  0
 22 23  1  0
 23 24  1  0
 24 25  2  0
 25 26  1  0
 26 27  1  0
 26 28  2  0
 28 29  1  0
 29 30  1  0
 29 31  2  0
 17 32  2  0
 13 33  1  0
  6 34  2  0
 34  2  1  0
 33 10  1  0
 32 14  1  0
 31 24  1  0
  1 35  1  0
  1 36  1  0
  1 37  1  0
  3 38  1  0
  4 39  1  0
  5 40  1  0
  7 41  1  0
 10 42  1  0
 11 43  1  0
 11 44  1  0
 12 45  1  0
 12 46  1  0
 13 47  1  0
 15 48  1  0
 16 49  1  0
 21 50  1  0
 22 51  1  0
 22 52  1  0
 23 53  1  0
 23 54  1  0
 27 55  1  0
 27 56  1  0
 27 57  1  0
 28 58  1  0
 30 59  1  0
 33 60  1  0
M  END
>  <Energy>  (1015) 
49.740824413608642

>  <compound_id>  (1015) 
441

>  <target_id>  (1015) 
1

>  <reference_id>  (1015) 
148

>  <inspiration_ids>  (1015) 
[194, 148]

>  <energy_score>  (1015) 
-34.295582615697384

>  <distance_score>  (1015) 
2.507164779165963

>  <path>  (1015) 
/opt/xchem-fragalysis-2/maxwin/BulkDock/SCRATCH/505736/C441-P148/C441-P148.minimised.mol

>  <scratch_subdir>  (1015) 
/opt/xchem-fragalysis-2/maxwin/BulkDock/SCRATCH/505736/C441-P148

>  <fragmenstein_runtime>  (1015) 
9.715508222579956

>  <fragmenstein_outcome>  (1015) 
too moved

>  <fragmenstein_mode>  (1015) 
expansion

>  <fragmenstein_error>  (1015) 


$$$$
C3005-P194
     RDKit          3D

 49 51  0  0  0  0  0  0  0  0999 V2000
    1.0948   -7.5196   38.7575 C   0  0  0  0  0  0  0  0  0  0  0  0
    2.3443   -7.8151   37.9816 C   0  0  0  0  0  0  0  0  0  0  0  0
    3.4265   -8.4680   38.6232 C   0  0  0  0  0  0  0  0  0  0  0  0
    4.5803   -8.8194   37.9226 C   0  0  0  0  0  0  0  0  0  0  0  0
    4.6617   -8.4787   36.5912 C   0  0  0  0  0  0  0  0  0  0  0  0
    5.6891   -8.8444   35.8284 F   0  0  0  0  0  0  0  0  0  0  0  0
    3.6422   -7.8102   35.9654 C   0  0  0  0  0  0  0  0  0  0  0  0
    2.4469   -7.5244   36.6190 C   0  0  0  0  0  0  0  0  0  0  0  0
    1.4376   -7.0449   35.7810 N   0  0  0  0  0  0  0  0  0  0  0  0
    1.4438   -6.7654   34.2617 C   0  0  0  0  0  0  0  0  0  0  0  0
    2.3166   -6.8188   33.4846 O   0  0  0  0  0  0  0  0  0  0  0  0
    0.1376   -6.4145   33.6087 C   0  0  0  0  0  0  0  0  0  0  0  0
   -0.7489   -7.4453   33.3866 C   0  0  0  0  0  0  0  0  0  0  0  0
   -1.1285   -7.5898   32.0692 C   0  0  0  0  0  0  0  0  0  0  0  0
   -1.9134   -8.6068   31.6322 O   0  0  0  0  0  0  0  0  0  0  0  0
   -0.6606   -6.8472   31.0635 N   0  0  0  0  0  0  0  0  0  0  0  0
    0.1131   -5.8234   31.4145 C   0  0  0  0  0  0  0  0  0  0  0  0
    0.8449   -5.0458   30.3665 C   0  0  0  0  0  0  0  0  0  0  0  0
    0.2102   -3.6797   30.2108 C   0  0  0  0  0  0  0  0  0  0  0  0
    0.1867   -2.9557   31.5136 N   0  0  0  0  0  0  0  0  0  0  0  0
   -1.2550   -2.1193   31.8165 S   0  0  0  0  0  0  0  0  0  0  0  0
   -1.0974   -1.4254   33.0761 O   0  0  0  0  0  0  0  0  0  0  0  0
   -2.3635   -3.0235   31.5748 O   0  0  0  0  0  0  0  0  0  0  0  0
   -1.3005   -0.8707   30.5962 C   0  0  0  0  0  0  0  0  0  0  0  0
   -0.6201    0.3622   30.7239 C   0  0  0  0  0  0  0  0  0  0  0  0
   -0.7348    0.9552   29.4900 C   0  0  0  0  0  0  0  0  0  0  0  0
   -1.4447    0.0840   28.7165 N   0  0  0  0  0  0  0  0  0  0  0  0
   -1.8066    0.2793   27.3348 C   0  0  0  0  0  0  0  0  0  0  0  0
   -1.7856   -1.0484   29.3561 N   0  0  0  0  0  0  0  0  0  0  0  0
    0.3758   -5.4718   32.6792 N   0  0  0  0  0  0  0  0  0  0  0  0
    0.7775   -6.4849   38.5919 H   0  0  0  0  0  0  0  0  0  0  0  0
    0.2938   -8.1951   38.4490 H   0  0  0  0  0  0  0  0  0  0  0  0
    1.2514   -7.6434   39.8341 H   0  0  0  0  0  0  0  0  0  0  0  0
    3.3476   -8.7363   39.6762 H   0  0  0  0  0  0  0  0  0  0  0  0
    5.3901   -9.3545   38.4059 H   0  0  0  0  0  0  0  0  0  0  0  0
    3.8165   -7.5728   34.9258 H   0  0  0  0  0  0  0  0  0  0  0  0
    0.5251   -6.8222   36.1622 H   0  0  0  0  0  0  0  0  0  0  0  0
   -0.9577   -8.1882   34.1359 H   0  0  0  0  0  0  0  0  0  0  0  0
   -2.4837   -8.9270   32.3505 H   0  0  0  0  0  0  0  0  0  0  0  0
    0.8357   -5.5838   29.4162 H   0  0  0  0  0  0  0  0  0  0  0  0
    1.8955   -4.9474   30.6665 H   0  0  0  0  0  0  0  0  0  0  0  0
    0.7843   -3.0781   29.4974 H   0  0  0  0  0  0  0  0  0  0  0  0
   -0.7954   -3.8000   29.7950 H   0  0  0  0  0  0  0  0  0  0  0  0
    0.3843   -3.5525   32.3268 H   0  0  0  0  0  0  0  0  0  0  0  0
   -0.0918    0.7403   31.5882 H   0  0  0  0  0  0  0  0  0  0  0  0
   -0.3772    1.8998   29.1024 H   0  0  0  0  0  0  0  0  0  0  0  0
   -2.1408   -0.6683   26.9124 H   0  0  0  0  0  0  0  0  0  0  0  0
   -0.9271    0.6476   26.8064 H   0  0  0  0  0  0  0  0  0  0  0  0
   -2.6054    1.0229   27.2903 H   0  0  0  0  0  0  0  0  0  0  0  0
  1  2  1  0
  2  3  2  0
  3  4  1  0
  4  5  2  0
  5  6  1  0
  5  7  1  0
  7  8  2  0
  8  9  1  0
  9 10  1  0
 10 11  2  0
 10 12  1  0
 12 13  2  0
 13 14  1  0
 14 15  1  0
 14 16  2  0
 16 17  1  0
 17 18  1  0
 18 19  1  0
 19 20  1  0
 20 21  1  0
 21 22  2  0
 21 23  2  0
 21 24  1  0
 24 25  1  0
 25 26  2  0
 26 27  1  0
 27 28  1  0
 27 29  1  0
 17 30  2  0
  8  2  1  0
 30 12  1  0
 29 24  2  0
  1 31  1  0
  1 32  1  0
  1 33  1  0
  3 34  1  0
  4 35  1  0
  7 36  1  0
  9 37  1  0
 13 38  1  0
 15 39  1  0
 18 40  1  0
 18 41  1  0
 19 42  1  0
 19 43  1  0
 20 44  1  0
 25 45  1  0
 26 46  1  0
 28 47  1  0
 28 48  1  0
 28 49  1  0
M  END
>  <Energy>  (1016) 
62.860081495020594

>  <compound_id>  (1016) 
3005

>  <target_id>  (1016) 
1

>  <reference_id>  (1016) 
194

>  <inspiration_ids>  (1016) 
[194, 149]

>  <energy_score>  (1016) 
-3.8301444211378453

>  <distance_score>  (1016) 
1.3871531346537316

>  <path>  (1016) 
/opt/xchem-fragalysis-2/maxwin/BulkDock/SCRATCH/505736/C3005-P194/C3005-P194.minimised.mol

>  <scratch_subdir>  (1016) 
/opt/xchem-fragalysis-2/maxwin/BulkDock/SCRATCH/505736/C3005-P194

>  <fragmenstein_runtime>  (1016) 
6.623542070388794

>  <fragmenstein_outcome>  (1016) 
too moved

>  <fragmenstein_mode>  (1016) 
expansion

>  <fragmenstein_error>  (1016) 


$$$$
C3005-P149
     RDKit          3D

 49 51  0  0  0  0  0  0  0  0999 V2000
    1.1303   -7.9463   38.7868 C   0  0  0  0  0  0  0  0  0  0  0  0
    2.3652   -8.1320   37.9552 C   0  0  0  0  0  0  0  0  0  0  0  0
    3.5162   -8.7256   38.5279 C   0  0  0  0  0  0  0  0  0  0  0  0
    4.6644   -8.9502   37.7694 C   0  0  0  0  0  0  0  0  0  0  0  0
    4.6679   -8.5434   36.4523 C   0  0  0  0  0  0  0  0  0  0  0  0
    5.6951   -8.7890   35.6423 F   0  0  0  0  0  0  0  0  0  0  0  0
    3.5820   -7.9195   35.8957 C   0  0  0  0  0  0  0  0  0  0  0  0
    2.4038   -7.7384   36.6137 C   0  0  0  0  0  0  0  0  0  0  0  0
    1.3427   -7.2361   35.8597 N   0  0  0  0  0  0  0  0  0  0  0  0
    1.3110   -6.6795   34.4183 C   0  0  0  0  0  0  0  0  0  0  0  0
    2.1822   -6.4821   33.6622 O   0  0  0  0  0  0  0  0  0  0  0  0
   -0.0502   -6.4304   33.8048 C   0  0  0  0  0  0  0  0  0  0  0  0
   -0.8156   -7.5495   33.5954 C   0  0  0  0  0  0  0  0  0  0  0  0
   -1.0528   -7.7977   32.2640 C   0  0  0  0  0  0  0  0  0  0  0  0
   -1.5563   -8.9896   31.8719 O   0  0  0  0  0  0  0  0  0  0  0  0
   -0.5933   -7.0787   31.2374 N   0  0  0  0  0  0  0  0  0  0  0  0
   -0.0211   -5.9250   31.5809 C   0  0  0  0  0  0  0  0  0  0  0  0
    0.7762   -5.1700   30.5582 C   0  0  0  0  0  0  0  0  0  0  0  0
    0.2386   -3.7688   30.3636 C   0  0  0  0  0  0  0  0  0  0  0  0
    0.2513   -3.0227   31.6515 N   0  0  0  0  0  0  0  0  0  0  0  0
   -1.1273   -2.0744   31.9032 S   0  0  0  0  0  0  0  0  0  0  0  0
   -0.9515   -1.3688   33.1536 O   0  0  0  0  0  0  0  0  0  0  0  0
   -2.2910   -2.9023   31.6513 O   0  0  0  0  0  0  0  0  0  0  0  0
   -1.0618   -0.8493   30.6617 C   0  0  0  0  0  0  0  0  0  0  0  0
   -0.4315    0.4046   30.8219 C   0  0  0  0  0  0  0  0  0  0  0  0
   -0.5029    0.9935   29.5815 C   0  0  0  0  0  0  0  0  0  0  0  0
   -1.1553    0.1039   28.7799 N   0  0  0  0  0  0  0  0  0  0  0  0
   -1.5108    0.3057   27.3987 C   0  0  0  0  0  0  0  0  0  0  0  0
   -1.4251   -1.0605   29.3863 N   0  0  0  0  0  0  0  0  0  0  0  0
    0.0888   -5.4894   32.8446 N   0  0  0  0  0  0  0  0  0  0  0  0
    0.9196   -6.8799   38.9149 H   0  0  0  0  0  0  0  0  0  0  0  0
    0.2751   -8.4272   38.3056 H   0  0  0  0  0  0  0  0  0  0  0  0
    1.2422   -8.3907   39.7812 H   0  0  0  0  0  0  0  0  0  0  0  0
    3.5020   -9.0397   39.5702 H   0  0  0  0  0  0  0  0  0  0  0  0
    5.5336   -9.4377   38.1961 H   0  0  0  0  0  0  0  0  0  0  0  0
    3.6900   -7.6354   34.8574 H   0  0  0  0  0  0  0  0  0  0  0  0
    0.4101   -7.1991   36.2575 H   0  0  0  0  0  0  0  0  0  0  0  0
   -0.9780   -8.3121   34.3431 H   0  0  0  0  0  0  0  0  0  0  0  0
   -0.9736   -9.2204   31.1252 H   0  0  0  0  0  0  0  0  0  0  0  0
    0.7686   -5.7082   29.6104 H   0  0  0  0  0  0  0  0  0  0  0  0
    1.8177   -5.1253   30.8947 H   0  0  0  0  0  0  0  0  0  0  0  0
    0.8640   -3.2234   29.6484 H   0  0  0  0  0  0  0  0  0  0  0  0
   -0.7657   -3.8310   29.9342 H   0  0  0  0  0  0  0  0  0  0  0  0
    0.3587   -3.6296   32.4755 H   0  0  0  0  0  0  0  0  0  0  0  0
    0.0201    0.8092   31.7169 H   0  0  0  0  0  0  0  0  0  0  0  0
   -0.1710    1.9554   29.2140 H   0  0  0  0  0  0  0  0  0  0  0  0
   -1.9999   -0.5878   27.0101 H   0  0  0  0  0  0  0  0  0  0  0  0
   -0.5895    0.5166   26.8597 H   0  0  0  0  0  0  0  0  0  0  0  0
   -2.1789    1.1670   27.3323 H   0  0  0  0  0  0  0  0  0  0  0  0
  1  2  1  0
  2  3  2  0
  3  4  1  0
  4  5  2  0
  5  6  1  0
  5  7  1  0
  7  8  2  0
  8  9  1  0
  9 10  1  0
 10 11  2  0
 10 12  1  0
 12 13  2  0
 13 14  1  0
 14 15  1  0
 14 16  2  0
 16 17  1  0
 17 18  1  0
 18 19  1  0
 19 20  1  0
 20 21  1  0
 21 22  2  0
 21 23  2  0
 21 24  1  0
 24 25  1  0
 25 26  2  0
 26 27  1  0
 27 28  1  0
 27 29  1  0
 17 30  2  0
  8  2  1  0
 30 12  1  0
 29 24  2  0
  1 31  1  0
  1 32  1  0
  1 33  1  0
  3 34  1  0
  4 35  1  0
  7 36  1  0
  9 37  1  0
 13 38  1  0
 15 39  1  0
 18 40  1  0
 18 41  1  0
 19 42  1  0
 19 43  1  0
 20 44  1  0
 25 45  1  0
 26 46  1  0
 28 47  1  0
 28 48  1  0
 28 49  1  0
M  END
>  <Energy>  (1017) 
58.301961096285886

>  <compound_id>  (1017) 
3005

>  <target_id>  (1017) 
1

>  <reference_id>  (1017) 
149

>  <inspiration_ids>  (1017) 
[194, 149]

>  <energy_score>  (1017) 
-8.38826481987445

>  <distance_score>  (1017) 
1.3278644368530226

>  <path>  (1017) 
/opt/xchem-fragalysis-2/maxwin/BulkDock/SCRATCH/505736/C3005-P149/C3005-P149.minimised.mol

>  <scratch_subdir>  (1017) 
/opt/xchem-fragalysis-2/maxwin/BulkDock/SCRATCH/505736/C3005-P149

>  <fragmenstein_runtime>  (1017) 
6.992544412612915

>  <fragmenstein_outcome>  (1017) 
too moved

>  <fragmenstein_mode>  (1017) 
expansion

>  <fragmenstein_error>  (1017) 


$$$$
C3008-P194
     RDKit          3D

 37 39  0  0  0  0  0  0  0  0999 V2000
   -1.7296    0.0480   27.4116 C   0  0  0  0  0  0  0  0  0  0  0  0
   -1.3920   -0.1452   28.8001 N   0  0  0  0  0  0  0  0  0  0  0  0
   -0.8243    0.7841   29.6225 C   0  0  0  0  0  0  0  0  0  0  0  0
   -0.7283    0.1908   30.8580 C   0  0  0  0  0  0  0  0  0  0  0  0
   -1.2513   -1.1112   30.6750 C   0  0  0  0  0  0  0  0  0  0  0  0
   -1.2296   -2.3488   31.9134 S   0  0  0  0  0  0  0  0  0  0  0  0
   -1.1668   -1.6082   33.1557 O   0  0  0  0  0  0  0  0  0  0  0  0
   -2.2996   -3.2780   31.6152 O   0  0  0  0  0  0  0  0  0  0  0  0
    0.2635   -3.1367   31.7587 N   0  0  0  0  0  0  0  0  0  0  0  0
    0.5009   -3.8564   30.4862 C   0  0  0  0  0  0  0  0  0  0  0  0
    1.3069   -5.1239   30.7760 C   0  0  0  0  0  0  0  0  0  0  0  0
    0.4438   -6.1515   31.4247 C   0  0  0  0  0  0  0  0  0  0  0  0
   -0.2317   -7.0696   30.7615 N   0  0  0  0  0  0  0  0  0  0  0  0
   -1.0096   -7.6864   31.6875 C   0  0  0  0  0  0  0  0  0  0  0  0
   -1.8867   -8.6429   31.3717 O   0  0  0  0  0  0  0  0  0  0  0  0
   -0.7822   -7.1975   32.9502 C   0  0  0  0  0  0  0  0  0  0  0  0
   -1.2605   -7.4418   34.2631 C   0  0  0  0  0  0  0  0  0  0  0  0
   -0.7391   -6.7597   35.2971 C   0  0  0  0  0  0  0  0  0  0  0  0
    0.2825   -5.7492   35.1024 C   0  0  0  0  0  0  0  0  0  0  0  0
    0.7255   -5.5035   33.8583 C   0  0  0  0  0  0  0  0  0  0  0  0
    0.1897   -6.2174   32.7846 N   0  0  0  0  0  0  0  0  0  0  0  0
   -1.6077   -1.3292   29.3994 N   0  0  0  0  0  0  0  0  0  0  0  0
   -2.4533    0.8635   27.3417 H   0  0  0  0  0  0  0  0  0  0  0  0
   -2.1567   -0.8723   27.0132 H   0  0  0  0  0  0  0  0  0  0  0  0
   -0.8142    0.3176   26.8863 H   0  0  0  0  0  0  0  0  0  0  0  0
   -0.5616    1.7715   29.2659 H   0  0  0  0  0  0  0  0  0  0  0  0
   -0.3299    0.6259   31.7641 H   0  0  0  0  0  0  0  0  0  0  0  0
    1.0149   -2.5043   32.0337 H   0  0  0  0  0  0  0  0  0  0  0  0
    1.0742   -3.1984   29.8240 H   0  0  0  0  0  0  0  0  0  0  0  0
   -0.4372   -4.1139   29.9837 H   0  0  0  0  0  0  0  0  0  0  0  0
    2.1889   -4.9046   31.3877 H   0  0  0  0  0  0  0  0  0  0  0  0
    1.6762   -5.5316   29.8270 H   0  0  0  0  0  0  0  0  0  0  0  0
   -2.4258   -8.9019   32.1393 H   0  0  0  0  0  0  0  0  0  0  0  0
   -2.0304   -8.1818   34.4327 H   0  0  0  0  0  0  0  0  0  0  0  0
   -1.0656   -6.9377   36.3150 H   0  0  0  0  0  0  0  0  0  0  0  0
    0.6562   -5.2057   35.9638 H   0  0  0  0  0  0  0  0  0  0  0  0
    1.4768   -4.7549   33.6504 H   0  0  0  0  0  0  0  0  0  0  0  0
  1  2  1  0
  2  3  1  0
  3  4  2  0
  4  5  1  0
  5  6  1  0
  6  7  2  0
  6  8  2  0
  6  9  1  0
  9 10  1  0
 10 11  1  0
 11 12  1  0
 12 13  2  0
 13 14  1  0
 14 15  1  0
 14 16  2  0
 16 17  1  0
 17 18  2  0
 18 19  1  0
 19 20  2  0
 20 21  1  0
  5 22  2  0
 22  2  1  0
 21 12  1  0
 21 16  1  0
  1 23  1  0
  1 24  1  0
  1 25  1  0
  3 26  1  0
  4 27  1  0
  9 28  1  0
 10 29  1  0
 10 30  1  0
 11 31  1  0
 11 32  1  0
 15 33  1  0
 17 34  1  0
 18 35  1  0
 19 36  1  0
 20 37  1  0
M  END
>  <Energy>  (1018) 
34.033571758794608

>  <compound_id>  (1018) 
3008

>  <target_id>  (1018) 
1

>  <reference_id>  (1018) 
194

>  <inspiration_ids>  (1018) 
[194, 157]

>  <energy_score>  (1018) 
-42.618801584353974

>  <distance_score>  (1018) 
0.8163820993803103

>  <path>  (1018) 
/opt/xchem-fragalysis-2/maxwin/BulkDock/SCRATCH/505736/C3008-P194/C3008-P194.minimised.mol

>  <scratch_subdir>  (1018) 
/opt/xchem-fragalysis-2/maxwin/BulkDock/SCRATCH/505736/C3008-P194

>  <fragmenstein_runtime>  (1018) 
2.44964337348938

>  <fragmenstein_outcome>  (1018) 
acceptable

>  <fragmenstein_mode>  (1018) 
expansion

>  <fragmenstein_error>  (1018) 


$$$$
C3008-P157
     RDKit          3D

 37 39  0  0  0  0  0  0  0  0999 V2000
   -1.5577    0.2517   27.3679 C   0  0  0  0  0  0  0  0  0  0  0  0
   -1.1576   -0.0078   28.7282 N   0  0  0  0  0  0  0  0  0  0  0  0
   -0.4078    0.8151   29.5180 C   0  0  0  0  0  0  0  0  0  0  0  0
   -0.3628    0.2164   30.7545 C   0  0  0  0  0  0  0  0  0  0  0  0
   -1.1051   -0.9778   30.6038 C   0  0  0  0  0  0  0  0  0  0  0  0
   -1.3303   -2.1443   31.8758 S   0  0  0  0  0  0  0  0  0  0  0  0
   -1.3570   -1.3731   33.1001 O   0  0  0  0  0  0  0  0  0  0  0  0
   -2.4280   -3.0161   31.5104 O   0  0  0  0  0  0  0  0  0  0  0  0
    0.0547   -3.1220   31.9598 N   0  0  0  0  0  0  0  0  0  0  0  0
    0.4309   -3.7990   30.6882 C   0  0  0  0  0  0  0  0  0  0  0  0
    1.3999   -4.9506   30.9788 C   0  0  0  0  0  0  0  0  0  0  0  0
    0.6523   -6.1221   31.5158 C   0  0  0  0  0  0  0  0  0  0  0  0
    0.1738   -7.1003   30.7687 N   0  0  0  0  0  0  0  0  0  0  0  0
   -0.6490   -7.7955   31.5915 C   0  0  0  0  0  0  0  0  0  0  0  0
   -1.2709   -8.9157   31.2256 O   0  0  0  0  0  0  0  0  0  0  0  0
   -0.6566   -7.2859   32.8613 C   0  0  0  0  0  0  0  0  0  0  0  0
   -1.2847   -7.5926   34.0906 C   0  0  0  0  0  0  0  0  0  0  0  0
   -0.8942   -6.9570   35.2088 C   0  0  0  0  0  0  0  0  0  0  0  0
    0.1358   -5.9334   35.1802 C   0  0  0  0  0  0  0  0  0  0  0  0
    0.7082   -5.6193   34.0051 C   0  0  0  0  0  0  0  0  0  0  0  0
    0.2929   -6.2794   32.8452 N   0  0  0  0  0  0  0  0  0  0  0  0
   -1.5253   -1.1443   29.3408 N   0  0  0  0  0  0  0  0  0  0  0  0
   -2.2475    1.0985   27.3667 H   0  0  0  0  0  0  0  0  0  0  0  0
   -2.0413   -0.6342   26.9567 H   0  0  0  0  0  0  0  0  0  0  0  0
   -0.6621    0.5074   26.8030 H   0  0  0  0  0  0  0  0  0  0  0  0
   -0.0074    1.7495   29.1479 H   0  0  0  0  0  0  0  0  0  0  0  0
    0.1248    0.5854   31.6462 H   0  0  0  0  0  0  0  0  0  0  0  0
   -0.1836   -3.7673   32.7102 H   0  0  0  0  0  0  0  0  0  0  0  0
    0.9326   -3.0639   30.0497 H   0  0  0  0  0  0  0  0  0  0  0  0
   -0.4561   -4.1705   30.1645 H   0  0  0  0  0  0  0  0  0  0  0  0
    2.1977   -4.6391   31.6616 H   0  0  0  0  0  0  0  0  0  0  0  0
    1.8831   -5.2510   30.0411 H   0  0  0  0  0  0  0  0  0  0  0  0
   -0.6984   -9.3276   30.5492 H   0  0  0  0  0  0  0  0  0  0  0  0
   -2.0515   -8.3578   34.1176 H   0  0  0  0  0  0  0  0  0  0  0  0
   -1.3262   -7.2138   36.1693 H   0  0  0  0  0  0  0  0  0  0  0  0
    0.4167   -5.4495   36.1099 H   0  0  0  0  0  0  0  0  0  0  0  0
    1.4830   -4.8677   33.9213 H   0  0  0  0  0  0  0  0  0  0  0  0
  1  2  1  0
  2  3  1  0
  3  4  2  0
  4  5  1  0
  5  6  1  0
  6  7  2  0
  6  8  2  0
  6  9  1  0
  9 10  1  0
 10 11  1  0
 11 12  1  0
 12 13  2  0
 13 14  1  0
 14 15  1  0
 14 16  2  0
 16 17  1  0
 17 18  2  0
 18 19  1  0
 19 20  2  0
 20 21  1  0
  5 22  2  0
 22  2  1  0
 21 12  1  0
 21 16  1  0
  1 23  1  0
  1 24  1  0
  1 25  1  0
  3 26  1  0
  4 27  1  0
  9 28  1  0
 10 29  1  0
 10 30  1  0
 11 31  1  0
 11 32  1  0
 15 33  1  0
 17 34  1  0
 18 35  1  0
 19 36  1  0
 20 37  1  0
M  END
>  <Energy>  (1019) 
32.422381581982989

>  <compound_id>  (1019) 
3008

>  <target_id>  (1019) 
1

>  <reference_id>  (1019) 
157

>  <inspiration_ids>  (1019) 
[194, 157]

>  <energy_score>  (1019) 
-44.22999176116696

>  <distance_score>  (1019) 
0.8602684548951709

>  <path>  (1019) 
/opt/xchem-fragalysis-2/maxwin/BulkDock/SCRATCH/505736/C3008-P157/C3008-P157.minimised.mol

>  <scratch_subdir>  (1019) 
/opt/xchem-fragalysis-2/maxwin/BulkDock/SCRATCH/505736/C3008-P157

>  <fragmenstein_runtime>  (1019) 
1.7806270122528076

>  <fragmenstein_outcome>  (1019) 
acceptable

>  <fragmenstein_mode>  (1019) 
expansion

>  <fragmenstein_error>  (1019) 


$$$$
C3013-P194
     RDKit          3D

 29 30  0  0  0  0  0  0  0  0999 V2000
   -0.3608   -6.6415   35.2093 C   0  0  0  0  0  0  0  0  0  0  0  0
   -0.6499   -6.3978   33.7262 C   0  0  0  0  0  0  0  0  0  0  0  0
   -1.0547   -7.7050   33.0510 C   0  0  0  0  0  0  0  0  0  0  0  0
   -1.1496   -7.5732   31.5408 C   0  0  0  0  0  0  0  0  0  0  0  0
   -1.3388   -8.8237   30.9263 O   0  0  0  0  0  0  0  0  0  0  0  0
    0.0306   -6.9717   30.9694 N   0  0  0  0  0  0  0  0  0  0  0  0
    0.2095   -5.6854   31.6006 C   0  0  0  0  0  0  0  0  0  0  0  0
    1.4204   -4.9154   31.1230 C   0  0  0  0  0  0  0  0  0  0  0  0
    1.5817   -3.8818   32.2391 C   0  0  0  0  0  0  0  0  0  0  0  0
    0.8961   -2.6273   31.9112 N   0  0  0  0  0  0  0  0  0  0  0  0
    0.9619   -4.5627   33.4872 C   0  0  0  0  0  0  0  0  0  0  0  0
    0.5174   -5.8796   33.0110 N   0  0  0  0  0  0  0  0  0  0  0  0
    0.5027   -7.3024   35.3459 H   0  0  0  0  0  0  0  0  0  0  0  0
   -1.2212   -7.1143   35.6939 H   0  0  0  0  0  0  0  0  0  0  0  0
   -0.1590   -5.7051   35.7392 H   0  0  0  0  0  0  0  0  0  0  0  0
   -1.4765   -5.6892   33.6430 H   0  0  0  0  0  0  0  0  0  0  0  0
   -0.3078   -8.4492   33.2782 H   0  0  0  0  0  0  0  0  0  0  0  0
   -1.9926   -8.0885   33.4610 H   0  0  0  0  0  0  0  0  0  0  0  0
   -2.0188   -6.9786   31.2903 H   0  0  0  0  0  0  0  0  0  0  0  0
   -0.4370   -9.1898   30.8371 H   0  0  0  0  0  0  0  0  0  0  0  0
   -0.1277   -6.8299   29.9753 H   0  0  0  0  0  0  0  0  0  0  0  0
   -0.6839   -5.0578   31.4553 H   0  0  0  0  0  0  0  0  0  0  0  0
    1.2794   -4.4743   30.1301 H   0  0  0  0  0  0  0  0  0  0  0  0
    2.3138   -5.5510   31.0766 H   0  0  0  0  0  0  0  0  0  0  0  0
    2.6431   -3.6661   32.4028 H   0  0  0  0  0  0  0  0  0  0  0  0
    1.2581   -2.2485   31.0360 H   0  0  0  0  0  0  0  0  0  0  0  0
   -0.1014   -2.7755   31.7704 H   0  0  0  0  0  0  0  0  0  0  0  0
    0.1345   -3.9621   33.8873 H   0  0  0  0  0  0  0  0  0  0  0  0
    1.7115   -4.6716   34.2784 H   0  0  0  0  0  0  0  0  0  0  0  0
  1  2  1  0
  2  3  1  0
  3  4  1  0
  4  5  1  0
  4  6  1  0
  6  7  1  0
  7  8  1  0
  8  9  1  0
  9 10  1  0
  9 11  1  0
 11 12  1  0
 12  2  1  0
 12  7  1  0
  1 13  1  0
  1 14  1  0
  1 15  1  0
  2 16  1  0
  3 17  1  0
  3 18  1  0
  4 19  1  0
  5 20  1  0
  6 21  1  0
  7 22  1  0
  8 23  1  0
  8 24  1  0
  9 25  1  0
 10 26  1  0
 10 27  1  0
 11 28  1  0
 11 29  1  0
M  END
>  <Energy>  (1020) 
-74.938402507392368

>  <compound_id>  (1020) 
3013

>  <target_id>  (1020) 
1

>  <reference_id>  (1020) 
194

>  <inspiration_ids>  (1020) 
[194, 163]

>  <energy_score>  (1020) 
-36.83033586065391

>  <distance_score>  (1020) 
1.1035261070039717

>  <path>  (1020) 
/opt/xchem-fragalysis-2/maxwin/BulkDock/SCRATCH/505736/C3013-P194/C3013-P194.minimised.mol

>  <scratch_subdir>  (1020) 
/opt/xchem-fragalysis-2/maxwin/BulkDock/SCRATCH/505736/C3013-P194

>  <fragmenstein_runtime>  (1020) 
1.0772311687469482

>  <fragmenstein_outcome>  (1020) 
too moved

>  <fragmenstein_mode>  (1020) 
expansion

>  <fragmenstein_error>  (1020) 


$$$$
C3013-P163
     RDKit          3D

 29 30  0  0  0  0  0  0  0  0999 V2000
   -0.3296   -6.6181   35.2522 C   0  0  0  0  0  0  0  0  0  0  0  0
   -0.6378   -6.3849   33.7714 C   0  0  0  0  0  0  0  0  0  0  0  0
   -1.0616   -7.6957   33.1149 C   0  0  0  0  0  0  0  0  0  0  0  0
   -1.1764   -7.5755   31.6052 C   0  0  0  0  0  0  0  0  0  0  0  0
   -1.3863   -8.8258   30.9995 O   0  0  0  0  0  0  0  0  0  0  0  0
   -0.0062   -6.9801   31.0056 N   0  0  0  0  0  0  0  0  0  0  0  0
    0.1884   -5.6912   31.6277 C   0  0  0  0  0  0  0  0  0  0  0  0
    1.3918   -4.9268   31.1227 C   0  0  0  0  0  0  0  0  0  0  0  0
    1.5778   -3.8884   32.2301 C   0  0  0  0  0  0  0  0  0  0  0  0
    0.8915   -2.6332   31.9080 N   0  0  0  0  0  0  0  0  0  0  0  0
    0.9792   -4.5609   33.4931 C   0  0  0  0  0  0  0  0  0  0  0  0
    0.5219   -5.8798   33.0332 N   0  0  0  0  0  0  0  0  0  0  0  0
    0.5280   -7.2880   35.3823 H   0  0  0  0  0  0  0  0  0  0  0  0
   -1.1885   -7.0752   35.7547 H   0  0  0  0  0  0  0  0  0  0  0  0
   -0.1084   -5.6793   35.7700 H   0  0  0  0  0  0  0  0  0  0  0  0
   -1.4604   -5.6707   33.6943 H   0  0  0  0  0  0  0  0  0  0  0  0
   -0.3204   -8.4453   33.3419 H   0  0  0  0  0  0  0  0  0  0  0  0
   -1.9978   -8.0656   33.5413 H   0  0  0  0  0  0  0  0  0  0  0  0
   -2.0461   -6.9782   31.3686 H   0  0  0  0  0  0  0  0  0  0  0  0
   -0.4899   -9.1914   30.8700 H   0  0  0  0  0  0  0  0  0  0  0  0
   -0.1965   -6.8385   30.0170 H   0  0  0  0  0  0  0  0  0  0  0  0
   -0.7057   -5.0615   31.4961 H   0  0  0  0  0  0  0  0  0  0  0  0
    1.2324   -4.4903   30.1305 H   0  0  0  0  0  0  0  0  0  0  0  0
    2.2826   -5.5643   31.0619 H   0  0  0  0  0  0  0  0  0  0  0  0
    2.6429   -3.6762   32.3728 H   0  0  0  0  0  0  0  0  0  0  0  0
    1.2376   -2.2593   31.0244 H   0  0  0  0  0  0  0  0  0  0  0  0
   -0.1095   -2.7765   31.7884 H   0  0  0  0  0  0  0  0  0  0  0  0
    0.1615   -3.9552   33.9051 H   0  0  0  0  0  0  0  0  0  0  0  0
    1.7430   -4.6677   34.2709 H   0  0  0  0  0  0  0  0  0  0  0  0
  1  2  1  0
  2  3  1  0
  3  4  1  0
  4  5  1  0
  4  6  1  0
  6  7  1  0
  7  8  1  0
  8  9  1  0
  9 10  1  0
  9 11  1  0
 11 12  1  0
 12  2  1  0
 12  7  1  0
  1 13  1  0
  1 14  1  0
  1 15  1  0
  2 16  1  0
  3 17  1  0
  3 18  1  0
  4 19  1  0
  5 20  1  0
  6 21  1  0
  7 22  1  0
  8 23  1  0
  8 24  1  0
  9 25  1  0
 10 26  1  0
 10 27  1  0
 11 28  1  0
 11 29  1  0
M  END
>  <Energy>  (1021) 
-74.804178634297841

>  <compound_id>  (1021) 
3013

>  <target_id>  (1021) 
1

>  <reference_id>  (1021) 
163

>  <inspiration_ids>  (1021) 
[194, 163]

>  <energy_score>  (1021) 
-36.69611198755901

>  <distance_score>  (1021) 
1.0928356017091834

>  <path>  (1021) 
/opt/xchem-fragalysis-2/maxwin/BulkDock/SCRATCH/505736/C3013-P163/C3013-P163.minimised.mol

>  <scratch_subdir>  (1021) 
/opt/xchem-fragalysis-2/maxwin/BulkDock/SCRATCH/505736/C3013-P163

>  <fragmenstein_runtime>  (1021) 
0.8676681518554688

>  <fragmenstein_outcome>  (1021) 
too moved

>  <fragmenstein_mode>  (1021) 
expansion

>  <fragmenstein_error>  (1021) 


$$$$
C3042-P194
     RDKit          3D

 62 65  0  0  0  0  0  0  0  0999 V2000
    3.8136   -0.2586   36.3742 C   0  0  0  0  0  0  0  0  0  0  0  0
    4.2418   -0.9921   35.2334 O   0  0  0  0  0  0  0  0  0  0  0  0
    3.6093   -2.2705   35.1034 C   0  0  0  0  0  0  0  0  0  0  0  0
    4.4772   -3.1308   34.1786 C   0  0  0  0  0  0  0  0  0  0  0  0
    3.6966   -4.1699   33.3621 C   0  0  0  0  0  0  0  0  0  0  0  0
    2.4169   -4.7455   34.0064 C   0  0  0  0  0  0  0  0  0  0  0  0
    1.5715   -3.6244   34.7193 C   0  0  0  0  0  0  0  0  0  0  0  0
    2.1565   -2.2058   34.5819 C   0  0  0  0  0  0  0  0  0  0  0  0
    2.0423   -1.7983   33.2028 O   0  0  0  0  0  0  0  0  0  0  0  0
    2.4025   -0.4373   32.9815 C   0  0  0  0  0  0  0  0  0  0  0  0
    1.4637   -5.4785   32.9420 C   0  0  0  0  0  0  0  0  0  0  0  0
    1.4823   -5.1333   31.4490 C   0  0  0  0  0  0  0  0  0  0  0  0
    0.2700   -4.3074   31.0200 C   0  0  0  0  0  0  0  0  0  0  0  0
    0.0835   -3.2025   31.9471 N   0  0  0  0  0  0  0  0  0  0  0  0
   -1.3686   -2.3634   31.9587 S   0  0  0  0  0  0  0  0  0  0  0  0
   -1.3776   -1.5538   33.1603 O   0  0  0  0  0  0  0  0  0  0  0  0
   -2.4528   -3.2620   31.6188 O   0  0  0  0  0  0  0  0  0  0  0  0
   -1.2789   -1.1770   30.6749 C   0  0  0  0  0  0  0  0  0  0  0  0
   -0.7901    0.1390   30.8593 C   0  0  0  0  0  0  0  0  0  0  0  0
   -0.8527    0.7166   29.6154 C   0  0  0  0  0  0  0  0  0  0  0  0
   -1.3793   -0.2329   28.7891 N   0  0  0  0  0  0  0  0  0  0  0  0
   -1.7215   -0.0442   27.4022 C   0  0  0  0  0  0  0  0  0  0  0  0
   -1.5750   -1.4206   29.3884 N   0  0  0  0  0  0  0  0  0  0  0  0
    0.5708   -6.3629   33.3078 N   0  0  0  0  0  0  0  0  0  0  0  0
    0.5735   -6.5930   34.6300 N   0  0  0  0  0  0  0  0  0  0  0  0
   -0.4589   -7.3485   35.2218 N   0  0  0  0  0  0  0  0  0  0  0  0
    0.1235   -7.5528   36.5651 C   0  0  0  0  0  0  0  0  0  0  0  0
    1.5775   -7.4175   36.5036 N   0  0  0  0  0  0  0  0  0  0  0  0
    1.7341   -6.6220   35.3961 C   0  0  0  0  0  0  0  0  0  0  0  0
    2.7568   -5.8159   35.0793 C   0  0  0  0  0  0  0  0  0  0  0  0
    4.0619   -5.8482   35.8101 C   0  0  0  0  0  0  0  0  0  0  0  0
    4.3843    0.6733   36.4127 H   0  0  0  0  0  0  0  0  0  0  0  0
    4.0101   -0.8224   37.2910 H   0  0  0  0  0  0  0  0  0  0  0  0
    2.7525   -0.0069   36.3049 H   0  0  0  0  0  0  0  0  0  0  0  0
    3.6065   -2.7369   36.0970 H   0  0  0  0  0  0  0  0  0  0  0  0
    5.2602   -3.6141   34.7738 H   0  0  0  0  0  0  0  0  0  0  0  0
    5.0328   -2.4905   33.4797 H   0  0  0  0  0  0  0  0  0  0  0  0
    4.3725   -4.9748   33.0480 H   0  0  0  0  0  0  0  0  0  0  0  0
    3.4457   -3.6522   32.4333 H   0  0  0  0  0  0  0  0  0  0  0  0
    1.4882   -3.8316   35.7958 H   0  0  0  0  0  0  0  0  0  0  0  0
    0.5400   -3.6247   34.3548 H   0  0  0  0  0  0  0  0  0  0  0  0
    1.5484   -1.5223   35.1845 H   0  0  0  0  0  0  0  0  0  0  0  0
    1.9128    0.2247   33.7013 H   0  0  0  0  0  0  0  0  0  0  0  0
    2.0706   -0.1631   31.9768 H   0  0  0  0  0  0  0  0  0  0  0  0
    3.4871   -0.3143   33.0094 H   0  0  0  0  0  0  0  0  0  0  0  0
    2.4015   -4.6324   31.1541 H   0  0  0  0  0  0  0  0  0  0  0  0
    1.4709   -6.0771   30.8908 H   0  0  0  0  0  0  0  0  0  0  0  0
   -0.6130   -4.9542   31.0246 H   0  0  0  0  0  0  0  0  0  0  0  0
    0.4203   -3.9292   30.0041 H   0  0  0  0  0  0  0  0  0  0  0  0
    0.8809   -2.5805   32.1293 H   0  0  0  0  0  0  0  0  0  0  0  0
   -0.4541    0.5962   31.7791 H   0  0  0  0  0  0  0  0  0  0  0  0
   -0.6091    1.7084   29.2588 H   0  0  0  0  0  0  0  0  0  0  0  0
   -2.1683   -0.9592   27.0139 H   0  0  0  0  0  0  0  0  0  0  0  0
   -0.8043    0.2091   26.8735 H   0  0  0  0  0  0  0  0  0  0  0  0
   -2.4315    0.7831   27.3292 H   0  0  0  0  0  0  0  0  0  0  0  0
   -0.4824   -8.2502   34.7490 H   0  0  0  0  0  0  0  0  0  0  0  0
   -0.2735   -6.7784   37.2346 H   0  0  0  0  0  0  0  0  0  0  0  0
   -0.1527   -8.5106   36.9851 H   0  0  0  0  0  0  0  0  0  0  0  0
    1.9896   -7.0192   37.3404 H   0  0  0  0  0  0  0  0  0  0  0  0
    4.1294   -6.6965   36.4997 H   0  0  0  0  0  0  0  0  0  0  0  0
    4.2000   -4.9436   36.4063 H   0  0  0  0  0  0  0  0  0  0  0  0
    4.8976   -5.9595   35.1135 H   0  0  0  0  0  0  0  0  0  0  0  0
  1  2  1  0
  2  3  1  0
  3  4  1  0
  4  5  1  0
  5  6  1  0
  6  7  1  0
  7  8  1  0
  8  9  1  0
  9 10  1  0
  6 11  1  0
 11 12  1  0
 12 13  1  0
 13 14  1  0
 14 15  1  0
 15 16  2  0
 15 17  2  0
 15 18  1  0
 18 19  1  0
 19 20  2  0
 20 21  1  0
 21 22  1  0
 21 23  1  0
 11 24  2  0
 24 25  1  0
 25 26  1  0
 26 27  1  0
 27 28  1  0
 28 29  1  0
 29 30  2  0
 30 31  1  0
  8  3  1  0
 23 18  2  0
 29 25  1  0
 30  6  1  0
  1 32  1  0
  1 33  1  0
  1 34  1  0
  3 35  1  0
  4 36  1  0
  4 37  1  0
  5 38  1  0
  5 39  1  0
  7 40  1  0
  7 41  1  0
  8 42  1  0
 10 43  1  0
 10 44  1  0
 10 45  1  0
 12 46  1  0
 12 47  1  0
 13 48  1  0
 13 49  1  0
 14 50  1  0
 19 51  1  0
 20 52  1  0
 22 53  1  0
 22 54  1  0
 22 55  1  0
 26 56  1  0
 27 57  1  0
 27 58  1  0
 28 59  1  0
 31 60  1  0
 31 61  1  0
 31 62  1  0
M  END
>  <Energy>  (1022) 
72.364001536786475

>  <compound_id>  (1022) 
3042

>  <target_id>  (1022) 
1

>  <reference_id>  (1022) 
194

>  <inspiration_ids>  (1022) 
[194, 165]

>  <energy_score>  (1022) 
-98.58741666487927

>  <distance_score>  (1022) 
1.0610512847903675

>  <path>  (1022) 
/opt/xchem-fragalysis-2/maxwin/BulkDock/SCRATCH/505736/C3042-P194/C3042-P194.minimised.mol

>  <scratch_subdir>  (1022) 
/opt/xchem-fragalysis-2/maxwin/BulkDock/SCRATCH/505736/C3042-P194

>  <fragmenstein_runtime>  (1022) 
14.215878963470459

>  <fragmenstein_outcome>  (1022) 
too moved

>  <fragmenstein_mode>  (1022) 
expansion

>  <fragmenstein_error>  (1022) 


$$$$
C3042-P165
     RDKit          3D

 62 65  0  0  0  0  0  0  0  0999 V2000
    1.3553   -1.3666   38.7073 C   0  0  0  0  0  0  0  0  0  0  0  0
    1.6040   -1.2059   37.3165 O   0  0  0  0  0  0  0  0  0  0  0  0
    1.9616   -2.4255   36.6533 C   0  0  0  0  0  0  0  0  0  0  0  0
    2.7514   -2.0496   35.3933 C   0  0  0  0  0  0  0  0  0  0  0  0
    2.7949   -3.1277   34.3091 C   0  0  0  0  0  0  0  0  0  0  0  0
    2.4894   -4.5606   34.7778 C   0  0  0  0  0  0  0  0  0  0  0  0
    1.2210   -4.6404   35.6952 C   0  0  0  0  0  0  0  0  0  0  0  0
    0.7569   -3.3190   36.3125 C   0  0  0  0  0  0  0  0  0  0  0  0
   -0.1461   -2.7319   35.3665 O   0  0  0  0  0  0  0  0  0  0  0  0
   -0.9638   -1.7145   35.9493 C   0  0  0  0  0  0  0  0  0  0  0  0
    2.2030   -5.5590   33.5763 C   0  0  0  0  0  0  0  0  0  0  0  0
    1.7591   -5.0366   32.1824 C   0  0  0  0  0  0  0  0  0  0  0  0
    0.2992   -4.6071   31.9893 C   0  0  0  0  0  0  0  0  0  0  0  0
    0.0336   -3.2732   32.5661 N   0  0  0  0  0  0  0  0  0  0  0  0
   -1.3273   -2.4221   32.0134 S   0  0  0  0  0  0  0  0  0  0  0  0
   -1.6466   -1.4399   33.0267 O   0  0  0  0  0  0  0  0  0  0  0  0
   -2.3034   -3.3933   31.5694 O   0  0  0  0  0  0  0  0  0  0  0  0
   -0.8934   -1.4089   30.6587 C   0  0  0  0  0  0  0  0  0  0  0  0
    0.0333   -0.3418   30.7711 C   0  0  0  0  0  0  0  0  0  0  0  0
   -0.0333    0.3135   29.5657 C   0  0  0  0  0  0  0  0  0  0  0  0
   -0.9548   -0.3649   28.8206 N   0  0  0  0  0  0  0  0  0  0  0  0
   -1.4155    0.0099   27.5066 C   0  0  0  0  0  0  0  0  0  0  0  0
   -1.4652   -1.4410   29.4459 N   0  0  0  0  0  0  0  0  0  0  0  0
    2.3485   -6.8594   33.7176 N   0  0  0  0  0  0  0  0  0  0  0  0
    2.8718   -7.2703   34.9183 N   0  0  0  0  0  0  0  0  0  0  0  0
    3.3341   -8.6292   35.0351 N   0  0  0  0  0  0  0  0  0  0  0  0
    4.0793   -8.5571   36.3189 C   0  0  0  0  0  0  0  0  0  0  0  0
    4.6033   -7.2152   36.4406 N   0  0  0  0  0  0  0  0  0  0  0  0
    3.7438   -6.4718   35.6564 C   0  0  0  0  0  0  0  0  0  0  0  0
    3.6965   -5.1425   35.5496 C   0  0  0  0  0  0  0  0  0  0  0  0
    4.8164   -4.3283   36.1097 C   0  0  0  0  0  0  0  0  0  0  0  0
    1.0853   -0.3909   39.1201 H   0  0  0  0  0  0  0  0  0  0  0  0
    2.2565   -1.7203   39.2173 H   0  0  0  0  0  0  0  0  0  0  0  0
    0.5274   -2.0574   38.8849 H   0  0  0  0  0  0  0  0  0  0  0  0
    2.6154   -2.9840   37.3294 H   0  0  0  0  0  0  0  0  0  0  0  0
    3.7678   -1.7609   35.6880 H   0  0  0  0  0  0  0  0  0  0  0  0
    2.3339   -1.1321   34.9556 H   0  0  0  0  0  0  0  0  0  0  0  0
    3.7569   -3.0841   33.7816 H   0  0  0  0  0  0  0  0  0  0  0  0
    2.0858   -2.8062   33.5509 H   0  0  0  0  0  0  0  0  0  0  0  0
    1.4069   -5.3331   36.5276 H   0  0  0  0  0  0  0  0  0  0  0  0
    0.3813   -5.0811   35.1404 H   0  0  0  0  0  0  0  0  0  0  0  0
    0.1859   -3.5622   37.2166 H   0  0  0  0  0  0  0  0  0  0  0  0
   -1.1732   -1.9020   37.0068 H   0  0  0  0  0  0  0  0  0  0  0  0
   -1.9255   -1.7004   35.4327 H   0  0  0  0  0  0  0  0  0  0  0  0
   -0.4833   -0.7412   35.8230 H   0  0  0  0  0  0  0  0  0  0  0  0
    2.4425   -4.2372   31.8773 H   0  0  0  0  0  0  0  0  0  0  0  0
    1.9428   -5.8625   31.4822 H   0  0  0  0  0  0  0  0  0  0  0  0
   -0.3701   -5.3364   32.4579 H   0  0  0  0  0  0  0  0  0  0  0  0
    0.0955   -4.5776   30.9130 H   0  0  0  0  0  0  0  0  0  0  0  0
   -0.0528   -3.2550   33.5962 H   0  0  0  0  0  0  0  0  0  0  0  0
    0.6199   -0.0672   31.6364 H   0  0  0  0  0  0  0  0  0  0  0  0
    0.4598    1.2001   29.1912 H   0  0  0  0  0  0  0  0  0  0  0  0
   -1.9612   -0.8238   27.0673 H   0  0  0  0  0  0  0  0  0  0  0  0
   -0.5415    0.2659   26.9095 H   0  0  0  0  0  0  0  0  0  0  0  0
   -2.0544    0.8897   27.6027 H   0  0  0  0  0  0  0  0  0  0  0  0
    4.1225   -8.6987   34.3907 H   0  0  0  0  0  0  0  0  0  0  0  0
    3.4014   -8.7654   37.1557 H   0  0  0  0  0  0  0  0  0  0  0  0
    4.8857   -9.2976   36.3400 H   0  0  0  0  0  0  0  0  0  0  0  0
    4.6649   -6.8601   37.3888 H   0  0  0  0  0  0  0  0  0  0  0  0
    5.6687   -4.9372   36.4317 H   0  0  0  0  0  0  0  0  0  0  0  0
    4.5064   -3.7569   36.9849 H   0  0  0  0  0  0  0  0  0  0  0  0
    5.2265   -3.6455   35.3606 H   0  0  0  0  0  0  0  0  0  0  0  0
  1  2  1  0
  2  3  1  0
  3  4  1  0
  4  5  1  0
  5  6  1  0
  6  7  1  0
  7  8  1  0
  8  9  1  0
  9 10  1  0
  6 11  1  0
 11 12  1  0
 12 13  1  0
 13 14  1  0
 14 15  1  0
 15 16  2  0
 15 17  2  0
 15 18  1  0
 18 19  1  0
 19 20  2  0
 20 21  1  0
 21 22  1  0
 21 23  1  0
 11 24  2  0
 24 25  1  0
 25 26  1  0
 26 27  1  0
 27 28  1  0
 28 29  1  0
 29 30  2  0
 30 31  1  0
  8  3  1  0
 23 18  2  0
 29 25  1  0
 30  6  1  0
  1 32  1  0
  1 33  1  0
  1 34  1  0
  3 35  1  0
  4 36  1  0
  4 37  1  0
  5 38  1  0
  5 39  1  0
  7 40  1  0
  7 41  1  0
  8 42  1  0
 10 43  1  0
 10 44  1  0
 10 45  1  0
 12 46  1  0
 12 47  1  0
 13 48  1  0
 13 49  1  0
 14 50  1  0
 19 51  1  0
 20 52  1  0
 22 53  1  0
 22 54  1  0
 22 55  1  0
 26 56  1  0
 27 57  1  0
 27 58  1  0
 28 59  1  0
 31 60  1  0
 31 61  1  0
 31 62  1  0
M  END
>  <Energy>  (1023) 
75.17851507203055

>  <compound_id>  (1023) 
3042

>  <target_id>  (1023) 
1

>  <reference_id>  (1023) 
165

>  <inspiration_ids>  (1023) 
[194, 165]

>  <energy_score>  (1023) 
-95.77290312963764

>  <distance_score>  (1023) 
1.2675812961761543

>  <path>  (1023) 
/opt/xchem-fragalysis-2/maxwin/BulkDock/SCRATCH/505736/C3042-P165/C3042-P165.minimised.mol

>  <scratch_subdir>  (1023) 
/opt/xchem-fragalysis-2/maxwin/BulkDock/SCRATCH/505736/C3042-P165

>  <fragmenstein_runtime>  (1023) 
12.970134973526001

>  <fragmenstein_outcome>  (1023) 
too moved

>  <fragmenstein_mode>  (1023) 
expansion

>  <fragmenstein_error>  (1023) 


$$$$
C3042-P194
     RDKit          3D

 62 65  0  0  0  0  0  0  0  0999 V2000
    4.2969   -2.1181   36.2877 C   0  0  0  0  0  0  0  0  0  0  0  0
    3.9690   -2.9457   35.1766 O   0  0  0  0  0  0  0  0  0  0  0  0
    3.2939   -4.1613   35.5590 C   0  0  0  0  0  0  0  0  0  0  0  0
    1.7866   -3.8894   35.6823 C   0  0  0  0  0  0  0  0  0  0  0  0
    1.0879   -3.9998   34.3210 C   0  0  0  0  0  0  0  0  0  0  0  0
    1.1620   -5.4183   33.6994 C   0  0  0  0  0  0  0  0  0  0  0  0
    2.4269   -6.1428   34.2151 C   0  0  0  0  0  0  0  0  0  0  0  0
    3.6128   -5.2113   34.4660 C   0  0  0  0  0  0  0  0  0  0  0  0
    4.7143   -6.0549   34.8471 O   0  0  0  0  0  0  0  0  0  0  0  0
    5.9714   -5.3895   34.8138 C   0  0  0  0  0  0  0  0  0  0  0  0
    1.2231   -5.3957   32.1149 C   0  0  0  0  0  0  0  0  0  0  0  0
    1.9130   -4.3040   31.3343 C   0  0  0  0  0  0  0  0  0  0  0  0
    0.8231   -3.4115   30.7358 C   0  0  0  0  0  0  0  0  0  0  0  0
    0.2505   -2.6406   31.8439 N   0  0  0  0  0  0  0  0  0  0  0  0
   -1.3457   -2.1258   31.7530 S   0  0  0  0  0  0  0  0  0  0  0  0
   -1.5797   -1.3584   32.9589 O   0  0  0  0  0  0  0  0  0  0  0  0
   -2.1994   -3.2213   31.3496 O   0  0  0  0  0  0  0  0  0  0  0  0
   -1.3427   -0.9255   30.4865 C   0  0  0  0  0  0  0  0  0  0  0  0
   -0.7311    0.3422   30.6458 C   0  0  0  0  0  0  0  0  0  0  0  0
   -0.8198    0.9319   29.4098 C   0  0  0  0  0  0  0  0  0  0  0  0
   -1.4636    0.0323   28.6111 N   0  0  0  0  0  0  0  0  0  0  0  0
   -1.8432    0.2479   27.2388 C   0  0  0  0  0  0  0  0  0  0  0  0
   -1.7423   -1.1308   29.2244 N   0  0  0  0  0  0  0  0  0  0  0  0
    0.6951   -6.2851   31.3310 N   0  0  0  0  0  0  0  0  0  0  0  0
   -0.0494   -7.2080   31.9099 N   0  0  0  0  0  0  0  0  0  0  0  0
   -0.9702   -7.7948   31.0297 N   0  0  0  0  0  0  0  0  0  0  0  0
   -1.8853   -8.3939   31.9925 C   0  0  0  0  0  0  0  0  0  0  0  0
   -1.6756   -7.8950   33.3397 N   0  0  0  0  0  0  0  0  0  0  0  0
   -0.5670   -7.1062   33.1959 C   0  0  0  0  0  0  0  0  0  0  0  0
   -0.0485   -6.2782   34.1128 C   0  0  0  0  0  0  0  0  0  0  0  0
   -0.6325   -6.1771   35.4946 C   0  0  0  0  0  0  0  0  0  0  0  0
    4.7891   -1.2186   35.9081 H   0  0  0  0  0  0  0  0  0  0  0  0
    3.4018   -1.8169   36.8378 H   0  0  0  0  0  0  0  0  0  0  0  0
    4.9915   -2.6360   36.9559 H   0  0  0  0  0  0  0  0  0  0  0  0
    3.6875   -4.4990   36.5264 H   0  0  0  0  0  0  0  0  0  0  0  0
    1.5992   -2.8889   36.0861 H   0  0  0  0  0  0  0  0  0  0  0  0
    1.3531   -4.5978   36.3929 H   0  0  0  0  0  0  0  0  0  0  0  0
    0.0496   -3.6596   34.4078 H   0  0  0  0  0  0  0  0  0  0  0  0
    1.5958   -3.2633   33.6998 H   0  0  0  0  0  0  0  0  0  0  0  0
    2.2287   -6.7020   35.1405 H   0  0  0  0  0  0  0  0  0  0  0  0
    2.7287   -6.9012   33.4960 H   0  0  0  0  0  0  0  0  0  0  0  0
    3.8849   -4.7220   33.5236 H   0  0  0  0  0  0  0  0  0  0  0  0
    6.7527   -6.1333   34.9931 H   0  0  0  0  0  0  0  0  0  0  0  0
    6.1460   -4.9346   33.8342 H   0  0  0  0  0  0  0  0  0  0  0  0
    6.0345   -4.6356   35.6021 H   0  0  0  0  0  0  0  0  0  0  0  0
    2.4895   -4.7673   30.5242 H   0  0  0  0  0  0  0  0  0  0  0  0
    2.6196   -3.7438   31.9482 H   0  0  0  0  0  0  0  0  0  0  0  0
    1.2687   -2.7186   30.0147 H   0  0  0  0  0  0  0  0  0  0  0  0
    0.0582   -4.0019   30.2219 H   0  0  0  0  0  0  0  0  0  0  0  0
    0.8405   -1.8802   32.1822 H   0  0  0  0  0  0  0  0  0  0  0  0
   -0.2885    0.7589   31.5393 H   0  0  0  0  0  0  0  0  0  0  0  0
   -0.5124    1.9015   29.0408 H   0  0  0  0  0  0  0  0  0  0  0  0
   -0.9715    0.6324   26.7114 H   0  0  0  0  0  0  0  0  0  0  0  0
   -2.6448    0.9895   27.2152 H   0  0  0  0  0  0  0  0  0  0  0  0
   -2.1807   -0.6925   26.8056 H   0  0  0  0  0  0  0  0  0  0  0  0
   -1.4411   -6.9988   30.6089 H   0  0  0  0  0  0  0  0  0  0  0  0
   -1.6914   -9.4560   31.9389 H   0  0  0  0  0  0  0  0  0  0  0  0
   -2.9139   -8.2281   31.6849 H   0  0  0  0  0  0  0  0  0  0  0  0
   -1.4913   -8.6647   33.9934 H   0  0  0  0  0  0  0  0  0  0  0  0
   -1.4740   -6.8591   35.6428 H   0  0  0  0  0  0  0  0  0  0  0  0
   -1.0047   -5.1706   35.7019 H   0  0  0  0  0  0  0  0  0  0  0  0
    0.1142   -6.4461   36.2472 H   0  0  0  0  0  0  0  0  0  0  0  0
  1  2  1  0
  2  3  1  0
  3  4  1  0
  4  5  1  0
  5  6  1  0
  6  7  1  0
  7  8  1  0
  8  9  1  0
  9 10  1  0
  6 11  1  0
 11 12  1  0
 12 13  1  0
 13 14  1  0
 14 15  1  0
 15 16  2  0
 15 17  2  0
 15 18  1  0
 18 19  1  0
 19 20  2  0
 20 21  1  0
 21 22  1  0
 21 23  1  0
 11 24  2  0
 24 25  1  0
 25 26  1  0
 26 27  1  0
 27 28  1  0
 28 29  1  0
 29 30  2  0
 30 31  1  0
  8  3  1  0
 23 18  2  0
 29 25  1  0
 30  6  1  0
  1 32  1  0
  1 33  1  0
  1 34  1  0
  3 35  1  0
  4 36  1  0
  4 37  1  0
  5 38  1  0
  5 39  1  0
  7 40  1  0
  7 41  1  0
  8 42  1  0
 10 43  1  0
 10 44  1  0
 10 45  1  0
 12 46  1  0
 12 47  1  0
 13 48  1  0
 13 49  1  0
 14 50  1  0
 19 51  1  0
 20 52  1  0
 22 53  1  0
 22 54  1  0
 22 55  1  0
 26 56  1  0
 27 57  1  0
 27 58  1  0
 28 59  1  0
 31 60  1  0
 31 61  1  0
 31 62  1  0
M  END
>  <Energy>  (1024) 
69.104730244475604

>  <compound_id>  (1024) 
3042

>  <target_id>  (1024) 
1

>  <reference_id>  (1024) 
194

>  <inspiration_ids>  (1024) 
[194, 166]

>  <energy_score>  (1024) 
-100.4754077432197

>  <distance_score>  (1024) 
1.0502492651785704

>  <path>  (1024) 
/opt/xchem-fragalysis-2/maxwin/BulkDock/SCRATCH/505736/C3042-P194/C3042-P194.minimised.mol

>  <scratch_subdir>  (1024) 
/opt/xchem-fragalysis-2/maxwin/BulkDock/SCRATCH/505736/C3042-P194

>  <fragmenstein_runtime>  (1024) 
4.7561726570129395

>  <fragmenstein_outcome>  (1024) 
too moved

>  <fragmenstein_mode>  (1024) 
expansion

>  <fragmenstein_error>  (1024) 


$$$$
C3042-P166
     RDKit          3D

 62 65  0  0  0  0  0  0  0  0999 V2000
    4.0950   -1.9448   36.2141 C   0  0  0  0  0  0  0  0  0  0  0  0
    3.7922   -2.8178   35.1307 O   0  0  0  0  0  0  0  0  0  0  0  0
    3.1113   -4.0189   35.5479 C   0  0  0  0  0  0  0  0  0  0  0  0
    1.6023   -3.7449   35.6346 C   0  0  0  0  0  0  0  0  0  0  0  0
    0.9211   -3.9356   34.2731 C   0  0  0  0  0  0  0  0  0  0  0  0
    1.0022   -5.3810   33.7216 C   0  0  0  0  0  0  0  0  0  0  0  0
    2.2770   -6.0622   34.2728 C   0  0  0  0  0  0  0  0  0  0  0  0
    3.4511   -5.1092   34.5022 C   0  0  0  0  0  0  0  0  0  0  0  0
    4.5568   -5.9256   34.9300 O   0  0  0  0  0  0  0  0  0  0  0  0
    5.8072   -5.2482   34.8903 C   0  0  0  0  0  0  0  0  0  0  0  0
    1.0506   -5.4406   32.1343 C   0  0  0  0  0  0  0  0  0  0  0  0
    1.7935   -4.4204   31.3027 C   0  0  0  0  0  0  0  0  0  0  0  0
    0.7583   -3.4922   30.6685 C   0  0  0  0  0  0  0  0  0  0  0  0
    0.2769   -2.6198   31.7413 N   0  0  0  0  0  0  0  0  0  0  0  0
   -1.3038   -2.0608   31.7077 S   0  0  0  0  0  0  0  0  0  0  0  0
   -1.4605   -1.2509   32.8980 O   0  0  0  0  0  0  0  0  0  0  0  0
   -2.2055   -3.1437   31.3838 O   0  0  0  0  0  0  0  0  0  0  0  0
   -1.3106   -0.9075   30.4010 C   0  0  0  0  0  0  0  0  0  0  0  0
   -0.7561    0.3885   30.5275 C   0  0  0  0  0  0  0  0  0  0  0  0
   -0.8151    0.9192   29.2628 C   0  0  0  0  0  0  0  0  0  0  0  0
   -1.3991   -0.0355   28.4835 N   0  0  0  0  0  0  0  0  0  0  0  0
   -1.7322    0.1038   27.0899 C   0  0  0  0  0  0  0  0  0  0  0  0
   -1.6228   -1.1907   29.1294 N   0  0  0  0  0  0  0  0  0  0  0  0
    0.4845   -6.3475   31.3959 N   0  0  0  0  0  0  0  0  0  0  0  0
   -0.2365   -7.2567   32.0298 N   0  0  0  0  0  0  0  0  0  0  0  0
   -1.1789   -7.9115   31.2066 N   0  0  0  0  0  0  0  0  0  0  0  0
   -2.0565   -8.4934   32.2281 C   0  0  0  0  0  0  0  0  0  0  0  0
   -1.7366   -7.9823   33.5351 N   0  0  0  0  0  0  0  0  0  0  0  0
   -0.7035   -7.1263   33.3315 C   0  0  0  0  0  0  0  0  0  0  0  0
   -0.1968   -6.2303   34.1898 C   0  0  0  0  0  0  0  0  0  0  0  0
   -0.7265   -6.0930   35.5900 C   0  0  0  0  0  0  0  0  0  0  0  0
    4.5932   -1.0600   35.8087 H   0  0  0  0  0  0  0  0  0  0  0  0
    3.1880   -1.6241   36.7328 H   0  0  0  0  0  0  0  0  0  0  0  0
    4.7764   -2.4333   36.9171 H   0  0  0  0  0  0  0  0  0  0  0  0
    3.4888   -4.3180   36.5342 H   0  0  0  0  0  0  0  0  0  0  0  0
    1.4077   -2.7225   35.9755 H   0  0  0  0  0  0  0  0  0  0  0  0
    1.1627   -4.4082   36.3826 H   0  0  0  0  0  0  0  0  0  0  0  0
   -0.1186   -3.5926   34.3264 H   0  0  0  0  0  0  0  0  0  0  0  0
    1.4466   -3.2384   33.6235 H   0  0  0  0  0  0  0  0  0  0  0  0
    2.0839   -6.5941   35.2148 H   0  0  0  0  0  0  0  0  0  0  0  0
    2.5916   -6.8392   33.5823 H   0  0  0  0  0  0  0  0  0  0  0  0
    3.7326   -4.6554   33.5457 H   0  0  0  0  0  0  0  0  0  0  0  0
    6.5939   -5.9780   35.1010 H   0  0  0  0  0  0  0  0  0  0  0  0
    5.9888   -4.8213   33.8995 H   0  0  0  0  0  0  0  0  0  0  0  0
    5.8536   -4.4705   35.6563 H   0  0  0  0  0  0  0  0  0  0  0  0
    2.3405   -4.9501   30.5132 H   0  0  0  0  0  0  0  0  0  0  0  0
    2.5310   -3.8746   31.8928 H   0  0  0  0  0  0  0  0  0  0  0  0
    1.2330   -2.8768   29.8974 H   0  0  0  0  0  0  0  0  0  0  0  0
   -0.0579   -4.0564   30.2075 H   0  0  0  0  0  0  0  0  0  0  0  0
    0.9120   -1.8592   31.9858 H   0  0  0  0  0  0  0  0  0  0  0  0
   -0.3637    0.8593   31.4178 H   0  0  0  0  0  0  0  0  0  0  0  0
   -0.5275    1.8818   28.8605 H   0  0  0  0  0  0  0  0  0  0  0  0
   -0.8015    0.2832   26.5577 H   0  0  0  0  0  0  0  0  0  0  0  0
   -2.3917    0.9662   26.9700 H   0  0  0  0  0  0  0  0  0  0  0  0
   -2.2260   -0.8024   26.7383 H   0  0  0  0  0  0  0  0  0  0  0  0
   -1.6866   -7.1546   30.7586 H   0  0  0  0  0  0  0  0  0  0  0  0
   -1.8769   -9.5605   32.2015 H   0  0  0  0  0  0  0  0  0  0  0  0
   -3.1013   -8.3247   31.9767 H   0  0  0  0  0  0  0  0  0  0  0  0
   -2.4790   -7.6925   34.1457 H   0  0  0  0  0  0  0  0  0  0  0  0
   -1.5259   -6.8034   35.8097 H   0  0  0  0  0  0  0  0  0  0  0  0
   -1.1377   -5.0944   35.7617 H   0  0  0  0  0  0  0  0  0  0  0  0
    0.0587   -6.2923   36.3242 H   0  0  0  0  0  0  0  0  0  0  0  0
  1  2  1  0
  2  3  1  0
  3  4  1  0
  4  5  1  0
  5  6  1  0
  6  7  1  0
  7  8  1  0
  8  9  1  0
  9 10  1  0
  6 11  1  0
 11 12  1  0
 12 13  1  0
 13 14  1  0
 14 15  1  0
 15 16  2  0
 15 17  2  0
 15 18  1  0
 18 19  1  0
 19 20  2  0
 20 21  1  0
 21 22  1  0
 21 23  1  0
 11 24  2  0
 24 25  1  0
 25 26  1  0
 26 27  1  0
 27 28  1  0
 28 29  1  0
 29 30  2  0
 30 31  1  0
  8  3  1  0
 23 18  2  0
 29 25  1  0
 30  6  1  0
  1 32  1  0
  1 33  1  0
  1 34  1  0
  3 35  1  0
  4 36  1  0
  4 37  1  0
  5 38  1  0
  5 39  1  0
  7 40  1  0
  7 41  1  0
  8 42  1  0
 10 43  1  0
 10 44  1  0
 10 45  1  0
 12 46  1  0
 12 47  1  0
 13 48  1  0
 13 49  1  0
 14 50  1  0
 19 51  1  0
 20 52  1  0
 22 53  1  0
 22 54  1  0
 22 55  1  0
 26 56  1  0
 27 57  1  0
 27 58  1  0
 28 59  1  0
 31 60  1  0
 31 61  1  0
 31 62  1  0
M  END
>  <Energy>  (1025) 
68.70562240934548

>  <compound_id>  (1025) 
3042

>  <target_id>  (1025) 
1

>  <reference_id>  (1025) 
166

>  <inspiration_ids>  (1025) 
[194, 166]

>  <energy_score>  (1025) 
-100.87451557834999

>  <distance_score>  (1025) 
1.0012286366273477

>  <path>  (1025) 
/opt/xchem-fragalysis-2/maxwin/BulkDock/SCRATCH/505736/C3042-P166/C3042-P166.minimised.mol

>  <scratch_subdir>  (1025) 
/opt/xchem-fragalysis-2/maxwin/BulkDock/SCRATCH/505736/C3042-P166

>  <fragmenstein_runtime>  (1025) 
4.52031135559082

>  <fragmenstein_outcome>  (1025) 
too moved

>  <fragmenstein_mode>  (1025) 
expansion

>  <fragmenstein_error>  (1025) 


$$$$
C3045-P194
     RDKit          3D

 57 60  0  0  0  0  0  0  0  0999 V2000
    0.1978   -6.7861   35.3867 C   0  0  0  0  0  0  0  0  0  0  0  0
   -0.3049   -5.8958   34.2566 C   0  0  0  0  0  0  0  0  0  0  0  0
   -1.0543   -6.6616   33.1824 C   0  0  0  0  0  0  0  0  0  0  0  0
    0.0384   -7.0809   32.2280 C   0  0  0  0  0  0  0  0  0  0  0  0
   -0.4454   -7.5755   30.8844 C   0  0  0  0  0  0  0  0  0  0  0  0
    1.0405   -5.9212   32.2510 C   0  0  0  0  0  0  0  0  0  0  0  0
    1.0642   -4.9311   31.0567 C   0  0  0  0  0  0  0  0  0  0  0  0
   -0.1822   -4.0445   30.8980 C   0  0  0  0  0  0  0  0  0  0  0  0
   -0.2281   -3.2133   29.5702 C   0  0  0  0  0  0  0  0  0  0  0  0
   -0.6262   -1.7953   29.5670 N   0  0  0  0  0  0  0  0  0  0  0  0
   -1.6084   -1.3731   30.5963 C   0  0  0  0  0  0  0  0  0  0  0  0
   -1.2880    0.0815   30.8994 C   0  0  0  0  0  0  0  0  0  0  0  0
   -0.4345    0.5131   29.7339 C   0  0  0  0  0  0  0  0  0  0  0  0
    0.3951   -0.7479   29.4367 C   0  0  0  0  0  0  0  0  0  0  0  0
    1.5808   -0.8568   30.4392 C   0  0  0  0  0  0  0  0  0  0  0  0
    2.7916   -1.5800   29.8588 C   0  0  0  0  0  0  0  0  0  0  0  0
    3.3128   -0.8871   28.6012 C   0  0  0  0  0  0  0  0  0  0  0  0
    2.2587   -0.0464   27.8840 C   0  0  0  0  0  0  0  0  0  0  0  0
    0.8910   -0.6968   27.9926 C   0  0  0  0  0  0  0  0  0  0  0  0
   -1.7699   -2.3352   32.1183 S   0  0  0  0  0  0  0  0  0  0  0  0
   -1.7499   -1.4896   33.2889 O   0  0  0  0  0  0  0  0  0  0  0  0
   -2.8143   -3.3146   31.8978 O   0  0  0  0  0  0  0  0  0  0  0  0
   -0.3116   -3.1695   32.0796 N   0  0  0  0  0  0  0  0  0  0  0  0
    0.7987   -5.2360   33.5358 N   0  0  0  0  0  0  0  0  0  0  0  0
   -0.6383   -7.2985   35.8744 H   0  0  0  0  0  0  0  0  0  0  0  0
    0.8974   -7.5498   35.0313 H   0  0  0  0  0  0  0  0  0  0  0  0
    0.7146   -6.1912   36.1475 H   0  0  0  0  0  0  0  0  0  0  0  0
   -0.9508   -5.1304   34.6980 H   0  0  0  0  0  0  0  0  0  0  0  0
   -1.7362   -5.9864   32.6710 H   0  0  0  0  0  0  0  0  0  0  0  0
   -1.6206   -7.5126   33.5716 H   0  0  0  0  0  0  0  0  0  0  0  0
    0.5277   -7.9228   32.7155 H   0  0  0  0  0  0  0  0  0  0  0  0
    0.3940   -7.8218   30.2281 H   0  0  0  0  0  0  0  0  0  0  0  0
   -1.0342   -8.4873   31.0212 H   0  0  0  0  0  0  0  0  0  0  0  0
   -1.0744   -6.8515   30.3696 H   0  0  0  0  0  0  0  0  0  0  0  0
    2.0450   -6.3576   32.2967 H   0  0  0  0  0  0  0  0  0  0  0  0
    1.2292   -5.4965   30.1317 H   0  0  0  0  0  0  0  0  0  0  0  0
    1.9417   -4.2829   31.1794 H   0  0  0  0  0  0  0  0  0  0  0  0
   -1.0416   -4.7153   30.8928 H   0  0  0  0  0  0  0  0  0  0  0  0
    0.6940   -3.3690   29.0040 H   0  0  0  0  0  0  0  0  0  0  0  0
   -0.9739   -3.7169   28.9409 H   0  0  0  0  0  0  0  0  0  0  0  0
   -2.5938   -1.4289   30.1254 H   0  0  0  0  0  0  0  0  0  0  0  0
   -0.7194    0.2123   31.8262 H   0  0  0  0  0  0  0  0  0  0  0  0
   -2.2042    0.6634   30.9767 H   0  0  0  0  0  0  0  0  0  0  0  0
   -1.0870    0.7820   28.8922 H   0  0  0  0  0  0  0  0  0  0  0  0
    0.1716    1.3933   29.9716 H   0  0  0  0  0  0  0  0  0  0  0  0
    1.9073    0.1497   30.7355 H   0  0  0  0  0  0  0  0  0  0  0  0
    1.2820   -1.3375   31.3738 H   0  0  0  0  0  0  0  0  0  0  0  0
    2.5527   -2.6191   29.6238 H   0  0  0  0  0  0  0  0  0  0  0  0
    3.5919   -1.6216   30.6071 H   0  0  0  0  0  0  0  0  0  0  0  0
    3.7086   -1.6487   27.9178 H   0  0  0  0  0  0  0  0  0  0  0  0
    4.1609   -0.2407   28.8578 H   0  0  0  0  0  0  0  0  0  0  0  0
    2.5522    0.0725   26.8364 H   0  0  0  0  0  0  0  0  0  0  0  0
    2.2281    0.9624   28.3136 H   0  0  0  0  0  0  0  0  0  0  0  0
    0.9850   -1.7138   27.6124 H   0  0  0  0  0  0  0  0  0  0  0  0
    0.1755   -0.1746   27.3491 H   0  0  0  0  0  0  0  0  0  0  0  0
   -0.1101   -3.6533   32.9672 H   0  0  0  0  0  0  0  0  0  0  0  0
    1.6431   -5.2070   34.1087 H   0  0  0  0  0  0  0  0  0  0  0  0
  1  2  1  0
  2  3  1  0
  3  4  1  0
  4  5  1  0
  4  6  1  0
  6  7  1  0
  7  8  1  0
  8  9  1  0
  9 10  1  0
 10 11  1  0
 11 12  1  0
 12 13  1  0
 13 14  1  0
 14 15  1  0
 15 16  1  0
 16 17  1  0
 17 18  1  0
 18 19  1  0
 11 20  1  0
 20 21  2  0
 20 22  2  0
 20 23  1  0
  6 24  1  0
 24  2  1  0
 23  8  1  0
 14 10  1  0
 19 14  1  0
  1 25  1  0
  1 26  1  0
  1 27  1  0
  2 28  1  0
  3 29  1  0
  3 30  1  0
  4 31  1  0
  5 32  1  0
  5 33  1  0
  5 34  1  0
  6 35  1  0
  7 36  1  0
  7 37  1  0
  8 38  1  0
  9 39  1  0
  9 40  1  0
 11 41  1  0
 12 42  1  0
 12 43  1  0
 13 44  1  0
 13 45  1  0
 15 46  1  0
 15 47  1  0
 16 48  1  0
 16 49  1  0
 17 50  1  0
 17 51  1  0
 18 52  1  0
 18 53  1  0
 19 54  1  0
 19 55  1  0
 23 56  1  0
 24 57  1  0
M  END
>  <Energy>  (1026) 
104.69528331749348

>  <compound_id>  (1026) 
3045

>  <target_id>  (1026) 
1

>  <reference_id>  (1026) 
194

>  <inspiration_ids>  (1026) 
[194, 180]

>  <energy_score>  (1026) 
-59.323509980825975

>  <distance_score>  (1026) 
1.4849459170367285

>  <path>  (1026) 
/opt/xchem-fragalysis-2/maxwin/BulkDock/SCRATCH/505736/C3045-P194/C3045-P194.minimised.mol

>  <scratch_subdir>  (1026) 
/opt/xchem-fragalysis-2/maxwin/BulkDock/SCRATCH/505736/C3045-P194

>  <fragmenstein_runtime>  (1026) 
8.979394435882568

>  <fragmenstein_outcome>  (1026) 
too moved

>  <fragmenstein_mode>  (1026) 
expansion

>  <fragmenstein_error>  (1026) 


$$$$
C3045-P180
     RDKit          3D

 57 60  0  0  0  0  0  0  0  0999 V2000
   -0.1175   -6.6858   35.4302 C   0  0  0  0  0  0  0  0  0  0  0  0
   -0.2316   -5.8289   34.1717 C   0  0  0  0  0  0  0  0  0  0  0  0
   -0.9799   -6.5485   33.0570 C   0  0  0  0  0  0  0  0  0  0  0  0
    0.1254   -7.1066   32.1963 C   0  0  0  0  0  0  0  0  0  0  0  0
   -0.2953   -7.5560   30.8191 C   0  0  0  0  0  0  0  0  0  0  0  0
    1.2184   -6.0475   32.2710 C   0  0  0  0  0  0  0  0  0  0  0  0
    1.3184   -4.9664   31.1691 C   0  0  0  0  0  0  0  0  0  0  0  0
    0.1432   -4.0025   30.9113 C   0  0  0  0  0  0  0  0  0  0  0  0
    0.5404   -2.8995   29.8424 C   0  0  0  0  0  0  0  0  0  0  0  0
    0.1901   -1.5336   30.2297 N   0  0  0  0  0  0  0  0  0  0  0  0
   -1.2176   -1.4293   30.6438 C   0  0  0  0  0  0  0  0  0  0  0  0
   -1.4222    0.0563   30.8049 C   0  0  0  0  0  0  0  0  0  0  0  0
   -0.6828    0.5889   29.5958 C   0  0  0  0  0  0  0  0  0  0  0  0
    0.5540   -0.3316   29.4746 C   0  0  0  0  0  0  0  0  0  0  0  0
    1.7313    0.3094   30.2496 C   0  0  0  0  0  0  0  0  0  0  0  0
    3.0240   -0.4836   30.0966 C   0  0  0  0  0  0  0  0  0  0  0  0
    3.4124   -0.5716   28.6335 C   0  0  0  0  0  0  0  0  0  0  0  0
    2.3028   -1.1029   27.7438 C   0  0  0  0  0  0  0  0  0  0  0  0
    0.9272   -0.4950   28.0028 C   0  0  0  0  0  0  0  0  0  0  0  0
   -1.6422   -2.3829   32.1159 S   0  0  0  0  0  0  0  0  0  0  0  0
   -1.6026   -1.5544   33.2982 O   0  0  0  0  0  0  0  0  0  0  0  0
   -2.7618   -3.2421   31.7982 O   0  0  0  0  0  0  0  0  0  0  0  0
   -0.2842   -3.3820   32.1872 N   0  0  0  0  0  0  0  0  0  0  0  0
    1.1056   -5.4957   33.6295 N   0  0  0  0  0  0  0  0  0  0  0  0
   -1.1115   -6.9283   35.8210 H   0  0  0  0  0  0  0  0  0  0  0  0
    0.4048   -7.6287   35.2347 H   0  0  0  0  0  0  0  0  0  0  0  0
    0.4291   -6.1536   36.2162 H   0  0  0  0  0  0  0  0  0  0  0  0
   -0.7571   -4.9069   34.4430 H   0  0  0  0  0  0  0  0  0  0  0  0
   -1.5559   -5.8269   32.4800 H   0  0  0  0  0  0  0  0  0  0  0  0
   -1.6531   -7.3306   33.4189 H   0  0  0  0  0  0  0  0  0  0  0  0
    0.4922   -7.9901   32.7233 H   0  0  0  0  0  0  0  0  0  0  0  0
   -0.8128   -6.7777   30.2622 H   0  0  0  0  0  0  0  0  0  0  0  0
    0.5678   -7.8747   30.2274 H   0  0  0  0  0  0  0  0  0  0  0  0
   -0.9658   -8.4125   30.9106 H   0  0  0  0  0  0  0  0  0  0  0  0
    2.1822   -6.5662   32.2304 H   0  0  0  0  0  0  0  0  0  0  0  0
    1.5590   -5.4664   30.2212 H   0  0  0  0  0  0  0  0  0  0  0  0
    2.2041   -4.3596   31.4098 H   0  0  0  0  0  0  0  0  0  0  0  0
   -0.7035   -4.5681   30.5153 H   0  0  0  0  0  0  0  0  0  0  0  0
    1.6179   -2.9709   29.6859 H   0  0  0  0  0  0  0  0  0  0  0  0
    0.0694   -3.1658   28.8877 H   0  0  0  0  0  0  0  0  0  0  0  0
   -1.8270   -1.8256   29.8285 H   0  0  0  0  0  0  0  0  0  0  0  0
   -0.9724    0.4414   31.7275 H   0  0  0  0  0  0  0  0  0  0  0  0
   -2.4765    0.3359   30.8031 H   0  0  0  0  0  0  0  0  0  0  0  0
   -1.3293    0.4914   28.7139 H   0  0  0  0  0  0  0  0  0  0  0  0
   -0.4321    1.6485   29.7094 H   0  0  0  0  0  0  0  0  0  0  0  0
    1.8987    1.3324   29.8853 H   0  0  0  0  0  0  0  0  0  0  0  0
    1.4961    0.4065   31.3179 H   0  0  0  0  0  0  0  0  0  0  0  0
    2.9408   -1.4788   30.5421 H   0  0  0  0  0  0  0  0  0  0  0  0
    3.8232    0.0266   30.6477 H   0  0  0  0  0  0  0  0  0  0  0  0
    4.3070   -1.1952   28.5222 H   0  0  0  0  0  0  0  0  0  0  0  0
    3.6921    0.4309   28.2837 H   0  0  0  0  0  0  0  0  0  0  0  0
    2.2605   -2.1926   27.8227 H   0  0  0  0  0  0  0  0  0  0  0  0
    2.5974   -0.8840   26.7135 H   0  0  0  0  0  0  0  0  0  0  0  0
    0.1560   -1.0796   27.4914 H   0  0  0  0  0  0  0  0  0  0  0  0
    0.9152    0.4965   27.5288 H   0  0  0  0  0  0  0  0  0  0  0  0
    0.4699   -2.9576   32.7307 H   0  0  0  0  0  0  0  0  0  0  0  0
    1.8278   -5.8707   34.2415 H   0  0  0  0  0  0  0  0  0  0  0  0
  1  2  1  0
  2  3  1  0
  3  4  1  0
  4  5  1  0
  4  6  1  0
  6  7  1  0
  7  8  1  0
  8  9  1  0
  9 10  1  0
 10 11  1  0
 11 12  1  0
 12 13  1  0
 13 14  1  0
 14 15  1  0
 15 16  1  0
 16 17  1  0
 17 18  1  0
 18 19  1  0
 11 20  1  0
 20 21  2  0
 20 22  2  0
 20 23  1  0
  6 24  1  0
 24  2  1  0
 23  8  1  0
 14 10  1  0
 19 14  1  0
  1 25  1  0
  1 26  1  0
  1 27  1  0
  2 28  1  0
  3 29  1  0
  3 30  1  0
  4 31  1  0
  5 32  1  0
  5 33  1  0
  5 34  1  0
  6 35  1  0
  7 36  1  0
  7 37  1  0
  8 38  1  0
  9 39  1  0
  9 40  1  0
 11 41  1  0
 12 42  1  0
 12 43  1  0
 13 44  1  0
 13 45  1  0
 15 46  1  0
 15 47  1  0
 16 48  1  0
 16 49  1  0
 17 50  1  0
 17 51  1  0
 18 52  1  0
 18 53  1  0
 19 54  1  0
 19 55  1  0
 23 56  1  0
 24 57  1  0
M  END
>  <Energy>  (1027) 
101.36913616465341

>  <compound_id>  (1027) 
3045

>  <target_id>  (1027) 
1

>  <reference_id>  (1027) 
180

>  <inspiration_ids>  (1027) 
[194, 180]

>  <energy_score>  (1027) 
-62.64965713366399

>  <distance_score>  (1027) 
1.8180289920759303

>  <path>  (1027) 
/opt/xchem-fragalysis-2/maxwin/BulkDock/SCRATCH/505736/C3045-P180/C3045-P180.minimised.mol

>  <scratch_subdir>  (1027) 
/opt/xchem-fragalysis-2/maxwin/BulkDock/SCRATCH/505736/C3045-P180

>  <fragmenstein_runtime>  (1027) 
9.124746084213257

>  <fragmenstein_outcome>  (1027) 
too moved

>  <fragmenstein_mode>  (1027) 
expansion

>  <fragmenstein_error>  (1027) 


$$$$
C3046-P194
     RDKit          3D

 58 60  0  0  0  0  0  0  0  0999 V2000
   -1.8304    0.4135   27.2652 C   0  0  0  0  0  0  0  0  0  0  0  0
   -1.3677    0.1729   28.6084 N   0  0  0  0  0  0  0  0  0  0  0  0
   -0.5691    0.9993   29.3448 C   0  0  0  0  0  0  0  0  0  0  0  0
   -0.4267    0.3968   30.5709 C   0  0  0  0  0  0  0  0  0  0  0  0
   -1.1843   -0.7926   30.4760 C   0  0  0  0  0  0  0  0  0  0  0  0
   -1.2654   -1.9756   31.7474 S   0  0  0  0  0  0  0  0  0  0  0  0
   -1.3623   -1.2138   32.9751 O   0  0  0  0  0  0  0  0  0  0  0  0
   -2.2806   -2.9437   31.3813 O   0  0  0  0  0  0  0  0  0  0  0  0
    0.2420   -2.7476   31.7973 N   0  0  0  0  0  0  0  0  0  0  0  0
    0.5860   -3.5814   30.6365 C   0  0  0  0  0  0  0  0  0  0  0  0
    1.7420   -4.5030   31.0003 C   0  0  0  0  0  0  0  0  0  0  0  0
    1.4121   -5.8708   31.6162 C   0  0  0  0  0  0  0  0  0  0  0  0
    0.5290   -6.6413   30.7804 N   0  0  0  0  0  0  0  0  0  0  0  0
    1.1411   -6.0062   33.0323 N   0  0  0  0  0  0  0  0  0  0  0  0
   -0.1881   -6.1846   33.6353 C   0  0  0  0  0  0  0  0  0  0  0  0
   -1.1559   -5.2441   32.9690 C   0  0  0  0  0  0  0  0  0  0  0  0
   -0.8037   -7.6292   33.5713 C   0  0  0  0  0  0  0  0  0  0  0  0
   -0.8836   -8.3235   32.2744 N   0  0  0  0  0  0  0  0  0  0  0  0
   -1.8900   -7.6873   31.4536 O   0  0  0  0  0  0  0  0  0  0  0  0
   -0.1963   -5.7377   35.1424 C   0  0  0  0  0  0  0  0  0  0  0  0
    0.5360   -6.5730   36.1183 C   0  0  0  0  0  0  0  0  0  0  0  0
    1.4997   -7.4495   35.9598 N   0  0  0  0  0  0  0  0  0  0  0  0
    1.8283   -7.8898   37.2252 N   0  0  0  0  0  0  0  0  0  0  0  0
    1.0250   -7.2757   38.0738 C   0  0  0  0  0  0  0  0  0  0  0  0
    1.0100   -7.4682   39.4846 C   0  0  0  0  0  0  0  0  0  0  0  0
    1.6564   -8.4051   40.2648 C   0  0  0  0  0  0  0  0  0  0  0  0
    1.2904   -8.1690   41.6130 C   0  0  0  0  0  0  0  0  0  0  0  0
    0.4299   -7.0943   41.6220 C   0  0  0  0  0  0  0  0  0  0  0  0
    0.2591   -6.6823   40.3256 N   0  0  0  0  0  0  0  0  0  0  0  0
    0.1888   -6.3950   37.4298 O   0  0  0  0  0  0  0  0  0  0  0  0
   -1.7333   -0.9430   29.2612 N   0  0  0  0  0  0  0  0  0  0  0  0
   -2.1220   -0.5323   26.8096 H   0  0  0  0  0  0  0  0  0  0  0  0
   -1.0191    0.8780   26.7045 H   0  0  0  0  0  0  0  0  0  0  0  0
   -2.6814    1.0964   27.3127 H   0  0  0  0  0  0  0  0  0  0  0  0
   -0.1903    1.9304   28.9451 H   0  0  0  0  0  0  0  0  0  0  0  0
    0.1418    0.7555   31.4175 H   0  0  0  0  0  0  0  0  0  0  0  0
    0.3769   -3.1781   32.7076 H   0  0  0  0  0  0  0  0  0  0  0  0
    0.9178   -2.9032   29.8409 H   0  0  0  0  0  0  0  0  0  0  0  0
   -0.2674   -4.1369   30.2425 H   0  0  0  0  0  0  0  0  0  0  0  0
    2.2916   -4.6987   30.0672 H   0  0  0  0  0  0  0  0  0  0  0  0
    2.4574   -3.9778   31.6478 H   0  0  0  0  0  0  0  0  0  0  0  0
    2.3782   -6.3589   31.5589 H   0  0  0  0  0  0  0  0  0  0  0  0
    0.9831   -6.8384   29.8923 H   0  0  0  0  0  0  0  0  0  0  0  0
    0.4408   -7.5566   31.2522 H   0  0  0  0  0  0  0  0  0  0  0  0
    1.7169   -5.3583   33.5658 H   0  0  0  0  0  0  0  0  0  0  0  0
   -1.1521   -4.2500   33.4146 H   0  0  0  0  0  0  0  0  0  0  0  0
   -1.0914   -5.1732   31.8908 H   0  0  0  0  0  0  0  0  0  0  0  0
   -2.1171   -5.6765   33.1390 H   0  0  0  0  0  0  0  0  0  0  0  0
   -1.7995   -7.6356   34.0333 H   0  0  0  0  0  0  0  0  0  0  0  0
   -0.2004   -8.2514   34.2261 H   0  0  0  0  0  0  0  0  0  0  0  0
   -1.3178   -9.2323   32.4330 H   0  0  0  0  0  0  0  0  0  0  0  0
   -1.3338   -7.0989   30.8906 H   0  0  0  0  0  0  0  0  0  0  0  0
    0.2029   -4.7164   35.2208 H   0  0  0  0  0  0  0  0  0  0  0  0
   -1.2383   -5.6765   35.4876 H   0  0  0  0  0  0  0  0  0  0  0  0
    2.3009   -9.1943   39.8968 H   0  0  0  0  0  0  0  0  0  0  0  0
    1.6102   -8.7357   42.4780 H   0  0  0  0  0  0  0  0  0  0  0  0
   -0.0846   -6.5988   42.4344 H   0  0  0  0  0  0  0  0  0  0  0  0
   -0.3354   -5.9190   40.0286 H   0  0  0  0  0  0  0  0  0  0  0  0
  1  2  1  0
  2  3  1  0
  3  4  2  0
  4  5  1  0
  5  6  1  0
  6  7  2  0
  6  8  2  0
  6  9  1  0
  9 10  1  0
 10 11  1  0
 11 12  1  0
 12 13  1  0
 12 14  1  0
 14 15  1  0
 15 16  1  0
 15 17  1  0
 17 18  1  0
 18 19  1  0
 15 20  1  0
 20 21  1  0
 21 22  2  0
 22 23  1  0
 23 24  2  0
 24 25  1  0
 25 26  2  0
 26 27  1  0
 27 28  2  0
 28 29  1  0
 24 30  1  0
  5 31  2  0
 31  2  1  0
 30 21  1  0
 29 25  1  0
  1 32  1  0
  1 33  1  0
  1 34  1  0
  3 35  1  0
  4 36  1  0
  9 37  1  0
 10 38  1  0
 10 39  1  0
 11 40  1  0
 11 41  1  0
 12 42  1  0
 13 43  1  0
 13 44  1  0
 14 45  1  0
 16 46  1  0
 16 47  1  0
 16 48  1  0
 17 49  1  0
 17 50  1  0
 18 51  1  0
 19 52  1  0
 20 53  1  0
 20 54  1  0
 26 55  1  0
 27 56  1  0
 28 57  1  0
 29 58  1  0
M  END
>  <Energy>  (1028) 
69.422110890360798

>  <compound_id>  (1028) 
3046

>  <target_id>  (1028) 
1

>  <reference_id>  (1028) 
194

>  <inspiration_ids>  (1028) 
[194, 183]

>  <energy_score>  (1028) 
-64.70317990029218

>  <distance_score>  (1028) 
0.9499899931384592

>  <path>  (1028) 
/opt/xchem-fragalysis-2/maxwin/BulkDock/SCRATCH/505736/C3046-P194/C3046-P194.minimised.mol

>  <scratch_subdir>  (1028) 
/opt/xchem-fragalysis-2/maxwin/BulkDock/SCRATCH/505736/C3046-P194

>  <fragmenstein_runtime>  (1028) 
6.6851160526275635

>  <fragmenstein_outcome>  (1028) 
acceptable

>  <fragmenstein_mode>  (1028) 
expansion

>  <fragmenstein_error>  (1028) 


$$$$
C3046-P183
     RDKit          3D

 58 60  0  0  0  0  0  0  0  0999 V2000
   -1.7868    0.3555   27.3429 C   0  0  0  0  0  0  0  0  0  0  0  0
   -1.3443    0.1263   28.6935 N   0  0  0  0  0  0  0  0  0  0  0  0
   -0.4632    0.9036   29.3881 C   0  0  0  0  0  0  0  0  0  0  0  0
   -0.3285    0.3141   30.6206 C   0  0  0  0  0  0  0  0  0  0  0  0
   -1.1792   -0.8147   30.5728 C   0  0  0  0  0  0  0  0  0  0  0  0
   -1.2618   -1.9875   31.8540 S   0  0  0  0  0  0  0  0  0  0  0  0
   -1.3172   -1.2134   33.0759 O   0  0  0  0  0  0  0  0  0  0  0  0
   -2.2977   -2.9429   31.5155 O   0  0  0  0  0  0  0  0  0  0  0  0
    0.2349   -2.7811   31.8661 N   0  0  0  0  0  0  0  0  0  0  0  0
    0.5222   -3.6252   30.6976 C   0  0  0  0  0  0  0  0  0  0  0  0
    1.6727   -4.5639   31.0241 C   0  0  0  0  0  0  0  0  0  0  0  0
    1.3194   -5.9176   31.6533 C   0  0  0  0  0  0  0  0  0  0  0  0
    0.3782   -6.6563   30.8568 N   0  0  0  0  0  0  0  0  0  0  0  0
    1.1220   -6.0466   33.0786 N   0  0  0  0  0  0  0  0  0  0  0  0
   -0.1634   -6.2366   33.7616 C   0  0  0  0  0  0  0  0  0  0  0  0
   -1.1374   -5.2383   33.2018 C   0  0  0  0  0  0  0  0  0  0  0  0
   -0.8247   -7.6624   33.6885 C   0  0  0  0  0  0  0  0  0  0  0  0
   -0.9351   -8.3553   32.3948 N   0  0  0  0  0  0  0  0  0  0  0  0
   -1.9720   -7.7232   31.6097 O   0  0  0  0  0  0  0  0  0  0  0  0
   -0.0646   -5.8671   35.2888 C   0  0  0  0  0  0  0  0  0  0  0  0
    0.7686   -6.7505   36.1368 C   0  0  0  0  0  0  0  0  0  0  0  0
    1.8363   -7.4555   35.8404 N   0  0  0  0  0  0  0  0  0  0  0  0
    2.2719   -8.0123   37.0222 N   0  0  0  0  0  0  0  0  0  0  0  0
    1.4173   -7.6471   37.9608 C   0  0  0  0  0  0  0  0  0  0  0  0
    1.5071   -8.0305   39.3306 C   0  0  0  0  0  0  0  0  0  0  0  0
    2.4755   -8.7603   39.9917 C   0  0  0  0  0  0  0  0  0  0  0  0
    2.0869   -8.8598   41.3504 C   0  0  0  0  0  0  0  0  0  0  0  0
    0.8893   -8.1931   41.4827 C   0  0  0  0  0  0  0  0  0  0  0  0
    0.5442   -7.6979   40.2511 N   0  0  0  0  0  0  0  0  0  0  0  0
    0.4411   -6.8121   37.4648 O   0  0  0  0  0  0  0  0  0  0  0  0
   -1.7970   -0.9301   29.3879 N   0  0  0  0  0  0  0  0  0  0  0  0
   -2.2684   -0.5441   26.9574 H   0  0  0  0  0  0  0  0  0  0  0  0
   -0.9139    0.6121   26.7456 H   0  0  0  0  0  0  0  0  0  0  0  0
   -2.4795    1.1994   27.3552 H   0  0  0  0  0  0  0  0  0  0  0  0
   -0.0179    1.7884   28.9534 H   0  0  0  0  0  0  0  0  0  0  0  0
    0.3036    0.6338   31.4372 H   0  0  0  0  0  0  0  0  0  0  0  0
    0.3888   -3.2151   32.7717 H   0  0  0  0  0  0  0  0  0  0  0  0
    0.8330   -2.9588   29.8841 H   0  0  0  0  0  0  0  0  0  0  0  0
   -0.3560   -4.1709   30.3466 H   0  0  0  0  0  0  0  0  0  0  0  0
    2.1863   -4.7757   30.0742 H   0  0  0  0  0  0  0  0  0  0  0  0
    2.4204   -4.0544   31.6469 H   0  0  0  0  0  0  0  0  0  0  0  0
    2.2557   -6.4426   31.5488 H   0  0  0  0  0  0  0  0  0  0  0  0
    0.7809   -6.8492   29.9436 H   0  0  0  0  0  0  0  0  0  0  0  0
    0.3055   -7.5796   31.3200 H   0  0  0  0  0  0  0  0  0  0  0  0
    1.7469   -5.4303   33.5925 H   0  0  0  0  0  0  0  0  0  0  0  0
   -1.0423   -4.2479   33.6475 H   0  0  0  0  0  0  0  0  0  0  0  0
   -1.1672   -5.1676   32.1203 H   0  0  0  0  0  0  0  0  0  0  0  0
   -2.0931   -5.6216   33.4776 H   0  0  0  0  0  0  0  0  0  0  0  0
   -1.8129   -7.6459   34.1642 H   0  0  0  0  0  0  0  0  0  0  0  0
   -0.2403   -8.2983   34.3446 H   0  0  0  0  0  0  0  0  0  0  0  0
   -1.3544   -9.2709   32.5712 H   0  0  0  0  0  0  0  0  0  0  0  0
   -1.4465   -7.1017   31.0540 H   0  0  0  0  0  0  0  0  0  0  0  0
    0.3316   -4.8473   35.3937 H   0  0  0  0  0  0  0  0  0  0  0  0
   -1.0767   -5.8409   35.7179 H   0  0  0  0  0  0  0  0  0  0  0  0
    3.3660   -9.1760   39.5373 H   0  0  0  0  0  0  0  0  0  0  0  0
    2.6218   -9.3648   42.1443 H   0  0  0  0  0  0  0  0  0  0  0  0
    0.2514   -8.0323   42.3415 H   0  0  0  0  0  0  0  0  0  0  0  0
   -0.2939   -7.1703   40.0435 H   0  0  0  0  0  0  0  0  0  0  0  0
  1  2  1  0
  2  3  1  0
  3  4  2  0
  4  5  1  0
  5  6  1  0
  6  7  2  0
  6  8  2  0
  6  9  1  0
  9 10  1  0
 10 11  1  0
 11 12  1  0
 12 13  1  0
 12 14  1  0
 14 15  1  0
 15 16  1  0
 15 17  1  0
 17 18  1  0
 18 19  1  0
 15 20  1  0
 20 21  1  0
 21 22  2  0
 22 23  1  0
 23 24  2  0
 24 25  1  0
 25 26  2  0
 26 27  1  0
 27 28  2  0
 28 29  1  0
 24 30  1  0
  5 31  2  0
 31  2  1  0
 30 21  1  0
 29 25  1  0
  1 32  1  0
  1 33  1  0
  1 34  1  0
  3 35  1  0
  4 36  1  0
  9 37  1  0
 10 38  1  0
 10 39  1  0
 11 40  1  0
 11 41  1  0
 12 42  1  0
 13 43  1  0
 13 44  1  0
 14 45  1  0
 16 46  1  0
 16 47  1  0
 16 48  1  0
 17 49  1  0
 17 50  1  0
 18 51  1  0
 19 52  1  0
 20 53  1  0
 20 54  1  0
 26 55  1  0
 27 56  1  0
 28 57  1  0
 29 58  1  0
M  END
>  <Energy>  (1029) 
69.13727736290592

>  <compound_id>  (1029) 
3046

>  <target_id>  (1029) 
1

>  <reference_id>  (1029) 
183

>  <inspiration_ids>  (1029) 
[194, 183]

>  <energy_score>  (1029) 
-64.98801342774874

>  <distance_score>  (1029) 
0.9325329448024661

>  <path>  (1029) 
/opt/xchem-fragalysis-2/maxwin/BulkDock/SCRATCH/505736/C3046-P183/C3046-P183.minimised.mol

>  <scratch_subdir>  (1029) 
/opt/xchem-fragalysis-2/maxwin/BulkDock/SCRATCH/505736/C3046-P183

>  <fragmenstein_runtime>  (1029) 
6.967162609100342

>  <fragmenstein_outcome>  (1029) 
acceptable

>  <fragmenstein_mode>  (1029) 
expansion

>  <fragmenstein_error>  (1029) 


$$$$
C3055-P194
     RDKit          3D

 54 57  0  0  0  0  0  0  0  0999 V2000
   -1.8918    0.5305   27.2215 C   0  0  0  0  0  0  0  0  0  0  0  0
   -1.4705    0.3148   28.5826 N   0  0  0  0  0  0  0  0  0  0  0  0
   -0.7313    1.1729   29.3428 C   0  0  0  0  0  0  0  0  0  0  0  0
   -0.5746    0.5640   30.5644 C   0  0  0  0  0  0  0  0  0  0  0  0
   -1.2573   -0.6670   30.4408 C   0  0  0  0  0  0  0  0  0  0  0  0
   -1.1001   -1.9655   31.6006 S   0  0  0  0  0  0  0  0  0  0  0  0
   -0.7339   -1.3138   32.8388 O   0  0  0  0  0  0  0  0  0  0  0  0
   -2.2716   -2.8112   31.4701 O   0  0  0  0  0  0  0  0  0  0  0  0
    0.2770   -2.7963   31.0236 N   0  0  0  0  0  0  0  0  0  0  0  0
    0.0176   -3.6130   29.8235 C   0  0  0  0  0  0  0  0  0  0  0  0
    0.2150   -5.0848   30.1234 C   0  0  0  0  0  0  0  0  0  0  0  0
   -0.2867   -5.5803   31.4751 C   0  0  0  0  0  0  0  0  0  0  0  0
    0.0622   -4.8262   32.6620 N   0  0  0  0  0  0  0  0  0  0  0  0
    0.5702   -5.7174   33.6760 C   0  0  0  0  0  0  0  0  0  0  0  0
    2.0972   -5.6295   33.8690 C   0  0  0  0  0  0  0  0  0  0  0  0
    2.8075   -4.2625   33.6295 C   0  0  0  0  0  0  0  0  0  0  0  0
    3.3378   -3.8939   32.2419 C   0  0  0  0  0  0  0  0  0  0  0  0
    3.9851   -2.6692   32.0501 C   0  0  0  0  0  0  0  0  0  0  0  0
    4.4888   -2.3470   30.7864 C   0  0  0  0  0  0  0  0  0  0  0  0
    4.3850   -3.1359   29.6951 N   0  0  0  0  0  0  0  0  0  0  0  0
    3.7865   -4.3195   29.8885 C   0  0  0  0  0  0  0  0  0  0  0  0
    3.2605   -4.7197   31.1186 C   0  0  0  0  0  0  0  0  0  0  0  0
    0.1507   -7.0898   33.1618 C   0  0  0  0  0  0  0  0  0  0  0  0
   -1.2803   -7.5043   33.3844 C   0  0  0  0  0  0  0  0  0  0  0  0
   -1.5428   -8.3649   32.2344 N   0  0  0  0  0  0  0  0  0  0  0  0
   -0.7394   -7.9001   31.1705 N   0  0  0  0  0  0  0  0  0  0  0  0
    0.2114   -6.9476   31.6917 N   0  0  0  0  0  0  0  0  0  0  0  0
   -1.7803   -0.8289   29.2153 N   0  0  0  0  0  0  0  0  0  0  0  0
   -2.7734    1.1750   27.2334 H   0  0  0  0  0  0  0  0  0  0  0  0
   -1.0804    1.0269   26.6876 H   0  0  0  0  0  0  0  0  0  0  0  0
   -2.1229   -0.4287   26.7589 H   0  0  0  0  0  0  0  0  0  0  0  0
   -0.3894    2.1245   28.9571 H   0  0  0  0  0  0  0  0  0  0  0  0
   -0.0133    0.9328   31.4120 H   0  0  0  0  0  0  0  0  0  0  0  0
    1.0659   -2.1548   30.9109 H   0  0  0  0  0  0  0  0  0  0  0  0
    0.6991   -3.2963   29.0257 H   0  0  0  0  0  0  0  0  0  0  0  0
   -0.9916   -3.4641   29.4281 H   0  0  0  0  0  0  0  0  0  0  0  0
    1.2424   -5.3690   29.9263 H   0  0  0  0  0  0  0  0  0  0  0  0
   -0.3407   -5.6330   29.3621 H   0  0  0  0  0  0  0  0  0  0  0  0
   -1.3792   -5.5471   31.4411 H   0  0  0  0  0  0  0  0  0  0  0  0
    0.6673   -4.0463   32.4139 H   0  0  0  0  0  0  0  0  0  0  0  0
    0.0835   -5.4912   34.6317 H   0  0  0  0  0  0  0  0  0  0  0  0
    2.6115   -6.3970   33.2832 H   0  0  0  0  0  0  0  0  0  0  0  0
    2.2858   -5.9058   34.9163 H   0  0  0  0  0  0  0  0  0  0  0  0
    3.6913   -4.2613   34.2832 H   0  0  0  0  0  0  0  0  0  0  0  0
    2.1599   -3.4523   33.9874 H   0  0  0  0  0  0  0  0  0  0  0  0
    4.1120   -1.9689   32.8709 H   0  0  0  0  0  0  0  0  0  0  0  0
    5.0016   -1.4020   30.6226 H   0  0  0  0  0  0  0  0  0  0  0  0
    3.7270   -4.9613   29.0156 H   0  0  0  0  0  0  0  0  0  0  0  0
    2.7788   -5.6841   31.1970 H   0  0  0  0  0  0  0  0  0  0  0  0
    0.8365   -7.8515   33.5222 H   0  0  0  0  0  0  0  0  0  0  0  0
   -1.4132   -8.0197   34.3372 H   0  0  0  0  0  0  0  0  0  0  0  0
   -1.9367   -6.6360   33.3918 H   0  0  0  0  0  0  0  0  0  0  0  0
   -2.5392   -8.4951   32.0497 H   0  0  0  0  0  0  0  0  0  0  0  0
   -1.2663   -7.5263   30.3767 H   0  0  0  0  0  0  0  0  0  0  0  0
  1  2  1  0
  2  3  1  0
  3  4  2  0
  4  5  1  0
  5  6  1  0
  6  7  2  0
  6  8  2  0
  6  9  1  0
  9 10  1  0
 10 11  1  0
 11 12  1  0
 12 13  1  0
 13 14  1  0
 14 15  1  0
 15 16  1  0
 16 17  1  0
 17 18  2  0
 18 19  1  0
 19 20  2  0
 20 21  1  0
 21 22  2  0
 14 23  1  0
 23 24  1  0
 24 25  1  0
 25 26  1  0
 26 27  1  0
  5 28  2  0
 28  2  1  0
 27 12  1  0
 22 17  1  0
 27 23  1  0
  1 29  1  0
  1 30  1  0
  1 31  1  0
  3 32  1  0
  4 33  1  0
  9 34  1  0
 10 35  1  0
 10 36  1  0
 11 37  1  0
 11 38  1  0
 12 39  1  0
 13 40  1  0
 14 41  1  0
 15 42  1  0
 15 43  1  0
 16 44  1  0
 16 45  1  0
 18 46  1  0
 19 47  1  0
 21 48  1  0
 22 49  1  0
 23 50  1  0
 24 51  1  0
 24 52  1  0
 25 53  1  0
 26 54  1  0
M  END
>  <Energy>  (1030) 
117.12552143496362

>  <compound_id>  (1030) 
3055

>  <target_id>  (1030) 
1

>  <reference_id>  (1030) 
194

>  <inspiration_ids>  (1030) 
[194, 200]

>  <energy_score>  (1030) 
-41.3270844985048

>  <distance_score>  (1030) 
1.5767183435303118

>  <path>  (1030) 
/opt/xchem-fragalysis-2/maxwin/BulkDock/SCRATCH/505736/C3055-P194/C3055-P194.minimised.mol

>  <scratch_subdir>  (1030) 
/opt/xchem-fragalysis-2/maxwin/BulkDock/SCRATCH/505736/C3055-P194

>  <fragmenstein_runtime>  (1030) 
4.993588447570801

>  <fragmenstein_outcome>  (1030) 
too moved

>  <fragmenstein_mode>  (1030) 
expansion

>  <fragmenstein_error>  (1030) 


$$$$
C3055-P200
     RDKit          3D

 54 57  0  0  0  0  0  0  0  0999 V2000
   -2.0724    1.0073   27.4418 C   0  0  0  0  0  0  0  0  0  0  0  0
   -1.4614    0.5587   28.6659 N   0  0  0  0  0  0  0  0  0  0  0  0
   -0.4531    1.1972   29.3261 C   0  0  0  0  0  0  0  0  0  0  0  0
   -0.2516    0.4907   30.4843 C   0  0  0  0  0  0  0  0  0  0  0  0
   -1.1725   -0.5825   30.4166 C   0  0  0  0  0  0  0  0  0  0  0  0
   -1.1262   -1.9066   31.5548 S   0  0  0  0  0  0  0  0  0  0  0  0
   -0.7682   -1.2895   32.8136 O   0  0  0  0  0  0  0  0  0  0  0  0
   -2.3325   -2.6928   31.3809 O   0  0  0  0  0  0  0  0  0  0  0  0
    0.2229   -2.8009   31.0244 N   0  0  0  0  0  0  0  0  0  0  0  0
   -0.0352   -3.6537   29.8520 C   0  0  0  0  0  0  0  0  0  0  0  0
    0.2102   -5.1033   30.2119 C   0  0  0  0  0  0  0  0  0  0  0  0
   -0.3787   -5.5925   31.5289 C   0  0  0  0  0  0  0  0  0  0  0  0
   -0.1675   -4.7802   32.7133 N   0  0  0  0  0  0  0  0  0  0  0  0
    0.3761   -5.6092   33.7664 C   0  0  0  0  0  0  0  0  0  0  0  0
    1.8252   -5.1871   34.0589 C   0  0  0  0  0  0  0  0  0  0  0  0
    2.8842   -5.3812   32.9390 C   0  0  0  0  0  0  0  0  0  0  0  0
    3.2425   -4.3361   31.8844 C   0  0  0  0  0  0  0  0  0  0  0  0
    3.5076   -3.0113   32.2098 C   0  0  0  0  0  0  0  0  0  0  0  0
    3.9589   -2.1567   31.2018 C   0  0  0  0  0  0  0  0  0  0  0  0
    4.1375   -2.5033   29.9056 N   0  0  0  0  0  0  0  0  0  0  0  0
    3.9141   -3.7867   29.5963 C   0  0  0  0  0  0  0  0  0  0  0  0
    3.4918   -4.7134   30.5389 C   0  0  0  0  0  0  0  0  0  0  0  0
    0.1540   -7.0296   33.2641 C   0  0  0  0  0  0  0  0  0  0  0  0
   -1.2400   -7.5683   33.4835 C   0  0  0  0  0  0  0  0  0  0  0  0
   -1.4775   -8.4159   32.3200 N   0  0  0  0  0  0  0  0  0  0  0  0
   -0.6476   -7.9427   31.2862 N   0  0  0  0  0  0  0  0  0  0  0  0
    0.2080   -6.9119   31.7994 N   0  0  0  0  0  0  0  0  0  0  0  0
   -1.8801   -0.5671   29.2749 N   0  0  0  0  0  0  0  0  0  0  0  0
   -2.7237    0.2290   27.0518 H   0  0  0  0  0  0  0  0  0  0  0  0
   -2.6547    1.9050   27.6593 H   0  0  0  0  0  0  0  0  0  0  0  0
   -1.2836    1.2405   26.7258 H   0  0  0  0  0  0  0  0  0  0  0  0
    0.0034    2.0978   28.9364 H   0  0  0  0  0  0  0  0  0  0  0  0
    0.4731    0.6991   31.2593 H   0  0  0  0  0  0  0  0  0  0  0  0
    1.0447   -2.2028   30.9041 H   0  0  0  0  0  0  0  0  0  0  0  0
    0.6323   -3.3489   29.0380 H   0  0  0  0  0  0  0  0  0  0  0  0
   -1.0515   -3.5374   29.4655 H   0  0  0  0  0  0  0  0  0  0  0  0
    1.2683   -5.3102   30.1759 H   0  0  0  0  0  0  0  0  0  0  0  0
   -0.2072   -5.7151   29.4109 H   0  0  0  0  0  0  0  0  0  0  0  0
   -1.4627   -5.6465   31.4198 H   0  0  0  0  0  0  0  0  0  0  0  0
    0.4355   -3.9912   32.4739 H   0  0  0  0  0  0  0  0  0  0  0  0
   -0.2016   -5.4439   34.6842 H   0  0  0  0  0  0  0  0  0  0  0  0
    2.1545   -5.7939   34.9138 H   0  0  0  0  0  0  0  0  0  0  0  0
    1.8449   -4.1460   34.4042 H   0  0  0  0  0  0  0  0  0  0  0  0
    2.6219   -6.3005   32.4208 H   0  0  0  0  0  0  0  0  0  0  0  0
    3.8341   -5.5836   33.4537 H   0  0  0  0  0  0  0  0  0  0  0  0
    3.4030   -2.6413   33.2244 H   0  0  0  0  0  0  0  0  0  0  0  0
    4.1919   -1.1184   31.4288 H   0  0  0  0  0  0  0  0  0  0  0  0
    4.0861   -4.0601   28.5599 H   0  0  0  0  0  0  0  0  0  0  0  0
    3.3356   -5.7283   30.1980 H   0  0  0  0  0  0  0  0  0  0  0  0
    0.9109   -7.7126   33.6522 H   0  0  0  0  0  0  0  0  0  0  0  0
   -1.3176   -8.1119   34.4266 H   0  0  0  0  0  0  0  0  0  0  0  0
   -1.9580   -6.7517   33.5234 H   0  0  0  0  0  0  0  0  0  0  0  0
   -2.4716   -8.5194   32.1109 H   0  0  0  0  0  0  0  0  0  0  0  0
   -1.1289   -7.6734   30.4254 H   0  0  0  0  0  0  0  0  0  0  0  0
  1  2  1  0
  2  3  1  0
  3  4  2  0
  4  5  1  0
  5  6  1  0
  6  7  2  0
  6  8  2  0
  6  9  1  0
  9 10  1  0
 10 11  1  0
 11 12  1  0
 12 13  1  0
 13 14  1  0
 14 15  1  0
 15 16  1  0
 16 17  1  0
 17 18  2  0
 18 19  1  0
 19 20  2  0
 20 21  1  0
 21 22  2  0
 14 23  1  0
 23 24  1  0
 24 25  1  0
 25 26  1  0
 26 27  1  0
  5 28  2  0
 28  2  1  0
 27 12  1  0
 22 17  1  0
 27 23  1  0
  1 29  1  0
  1 30  1  0
  1 31  1  0
  3 32  1  0
  4 33  1  0
  9 34  1  0
 10 35  1  0
 10 36  1  0
 11 37  1  0
 11 38  1  0
 12 39  1  0
 13 40  1  0
 14 41  1  0
 15 42  1  0
 15 43  1  0
 16 44  1  0
 16 45  1  0
 18 46  1  0
 19 47  1  0
 21 48  1  0
 22 49  1  0
 23 50  1  0
 24 51  1  0
 24 52  1  0
 25 53  1  0
 26 54  1  0
M  END
>  <Energy>  (1031) 
114.92887497945799

>  <compound_id>  (1031) 
3055

>  <target_id>  (1031) 
1

>  <reference_id>  (1031) 
200

>  <inspiration_ids>  (1031) 
[194, 200]

>  <energy_score>  (1031) 
-43.52373095400952

>  <distance_score>  (1031) 
1.5575868481335027

>  <path>  (1031) 
/opt/xchem-fragalysis-2/maxwin/BulkDock/SCRATCH/505736/C3055-P200/C3055-P200.minimised.mol

>  <scratch_subdir>  (1031) 
/opt/xchem-fragalysis-2/maxwin/BulkDock/SCRATCH/505736/C3055-P200

>  <fragmenstein_runtime>  (1031) 
4.658576011657715

>  <fragmenstein_outcome>  (1031) 
too moved

>  <fragmenstein_mode>  (1031) 
expansion

>  <fragmenstein_error>  (1031) 


$$$$
C3055-P194
     RDKit          3D

 54 57  0  0  0  0  0  0  0  0999 V2000
   -1.9137    0.6230   27.1722 C   0  0  0  0  0  0  0  0  0  0  0  0
   -1.4809    0.4048   28.5291 N   0  0  0  0  0  0  0  0  0  0  0  0
   -0.6685    1.2168   29.2658 C   0  0  0  0  0  0  0  0  0  0  0  0
   -0.5608    0.6282   30.5033 C   0  0  0  0  0  0  0  0  0  0  0  0
   -1.3506   -0.5403   30.4129 C   0  0  0  0  0  0  0  0  0  0  0  0
   -1.3446   -1.7890   31.6265 S   0  0  0  0  0  0  0  0  0  0  0  0
   -1.3007   -1.0904   32.8930 O   0  0  0  0  0  0  0  0  0  0  0  0
   -2.3860   -2.7388   31.3020 O   0  0  0  0  0  0  0  0  0  0  0  0
    0.1707   -2.5336   31.4523 N   0  0  0  0  0  0  0  0  0  0  0  0
    0.4693   -3.0834   30.1079 C   0  0  0  0  0  0  0  0  0  0  0  0
    0.0230   -4.5256   29.9439 C   0  0  0  0  0  0  0  0  0  0  0  0
    0.1777   -5.3283   31.2166 C   0  0  0  0  0  0  0  0  0  0  0  0
   -0.7015   -5.0682   32.3452 N   0  0  0  0  0  0  0  0  0  0  0  0
   -0.1680   -5.9618   33.3701 C   0  0  0  0  0  0  0  0  0  0  0  0
    1.1524   -5.4134   34.0296 C   0  0  0  0  0  0  0  0  0  0  0  0
    2.5585   -5.5951   33.3409 C   0  0  0  0  0  0  0  0  0  0  0  0
    3.2014   -4.5992   32.3550 C   0  0  0  0  0  0  0  0  0  0  0  0
    3.7951   -3.4231   32.7962 C   0  0  0  0  0  0  0  0  0  0  0  0
    4.4864   -2.6385   31.8690 C   0  0  0  0  0  0  0  0  0  0  0  0
    4.6266   -2.9171   30.5488 N   0  0  0  0  0  0  0  0  0  0  0  0
    4.0482   -4.0439   30.1177 C   0  0  0  0  0  0  0  0  0  0  0  0
    3.3303   -4.8779   30.9651 C   0  0  0  0  0  0  0  0  0  0  0  0
   -0.0454   -7.2247   32.5219 C   0  0  0  0  0  0  0  0  0  0  0  0
   -1.3442   -7.9339   32.2006 C   0  0  0  0  0  0  0  0  0  0  0  0
   -1.1215   -8.4948   30.8688 N   0  0  0  0  0  0  0  0  0  0  0  0
   -0.4111   -7.4558   30.2038 N   0  0  0  0  0  0  0  0  0  0  0  0
    0.4065   -6.7760   31.1763 N   0  0  0  0  0  0  0  0  0  0  0  0
   -1.8793   -0.6912   29.1914 N   0  0  0  0  0  0  0  0  0  0  0  0
   -2.1004   -0.3391   26.6960 H   0  0  0  0  0  0  0  0  0  0  0  0
   -1.1297    1.1662   26.6425 H   0  0  0  0  0  0  0  0  0  0  0  0
   -2.8248    1.2248   27.1963 H   0  0  0  0  0  0  0  0  0  0  0  0
   -0.2551    2.1296   28.8578 H   0  0  0  0  0  0  0  0  0  0  0  0
    0.0216    0.9770   31.3445 H   0  0  0  0  0  0  0  0  0  0  0  0
    0.9006   -1.9024   31.7888 H   0  0  0  0  0  0  0  0  0  0  0  0
    1.5508   -3.0111   29.9761 H   0  0  0  0  0  0  0  0  0  0  0  0
    0.0663   -2.4698   29.2998 H   0  0  0  0  0  0  0  0  0  0  0  0
    0.6291   -4.9622   29.1434 H   0  0  0  0  0  0  0  0  0  0  0  0
   -1.0015   -4.5171   29.5891 H   0  0  0  0  0  0  0  0  0  0  0  0
    1.1054   -4.9363   31.5613 H   0  0  0  0  0  0  0  0  0  0  0  0
   -0.5957   -4.0938   32.6241 H   0  0  0  0  0  0  0  0  0  0  0  0
   -0.9175   -6.0867   34.1599 H   0  0  0  0  0  0  0  0  0  0  0  0
    1.2293   -5.9514   34.9855 H   0  0  0  0  0  0  0  0  0  0  0  0
    1.0187   -4.3568   34.2938 H   0  0  0  0  0  0  0  0  0  0  0  0
    2.5756   -6.5820   32.8826 H   0  0  0  0  0  0  0  0  0  0  0  0
    3.2866   -5.6756   34.1622 H   0  0  0  0  0  0  0  0  0  0  0  0
    3.7666   -3.1290   33.8403 H   0  0  0  0  0  0  0  0  0  0  0  0
    4.9799   -1.7235   32.1907 H   0  0  0  0  0  0  0  0  0  0  0  0
    4.1652   -4.2663   29.0620 H   0  0  0  0  0  0  0  0  0  0  0  0
    2.8757   -5.7597   30.5278 H   0  0  0  0  0  0  0  0  0  0  0  0
    0.6718   -7.9006   32.9720 H   0  0  0  0  0  0  0  0  0  0  0  0
   -1.6062   -8.6867   32.9341 H   0  0  0  0  0  0  0  0  0  0  0  0
   -2.1779   -7.2438   32.1435 H   0  0  0  0  0  0  0  0  0  0  0  0
   -0.5076   -9.3149   30.9335 H   0  0  0  0  0  0  0  0  0  0  0  0
   -1.0601   -6.8225   29.7210 H   0  0  0  0  0  0  0  0  0  0  0  0
  1  2  1  0
  2  3  1  0
  3  4  2  0
  4  5  1  0
  5  6  1  0
  6  7  2  0
  6  8  2  0
  6  9  1  0
  9 10  1  0
 10 11  1  0
 11 12  1  0
 12 13  1  0
 13 14  1  0
 14 15  1  0
 15 16  1  0
 16 17  1  0
 17 18  2  0
 18 19  1  0
 19 20  2  0
 20 21  1  0
 21 22  2  0
 14 23  1  0
 23 24  1  0
 24 25  1  0
 25 26  1  0
 26 27  1  0
  5 28  2  0
 28  2  1  0
 27 12  1  0
 22 17  1  0
 27 23  1  0
  1 29  1  0
  1 30  1  0
  1 31  1  0
  3 32  1  0
  4 33  1  0
  9 34  1  0
 10 35  1  0
 10 36  1  0
 11 37  1  0
 11 38  1  0
 12 39  1  0
 13 40  1  0
 14 41  1  0
 15 42  1  0
 15 43  1  0
 16 44  1  0
 16 45  1  0
 18 46  1  0
 19 47  1  0
 21 48  1  0
 22 49  1  0
 23 50  1  0
 24 51  1  0
 24 52  1  0
 25 53  1  0
 26 54  1  0
M  END
>  <Energy>  (1032) 
132.80107594262606

>  <compound_id>  (1032) 
3055

>  <target_id>  (1032) 
1

>  <reference_id>  (1032) 
194

>  <inspiration_ids>  (1032) 
[194, 201]

>  <energy_score>  (1032) 
-25.6515299908404

>  <distance_score>  (1032) 
1.5115279648937583

>  <path>  (1032) 
/opt/xchem-fragalysis-2/maxwin/BulkDock/SCRATCH/505736/C3055-P194/C3055-P194.minimised.mol

>  <scratch_subdir>  (1032) 
/opt/xchem-fragalysis-2/maxwin/BulkDock/SCRATCH/505736/C3055-P194

>  <fragmenstein_runtime>  (1032) 
5.678240537643433

>  <fragmenstein_outcome>  (1032) 
too moved

>  <fragmenstein_mode>  (1032) 
expansion

>  <fragmenstein_error>  (1032) 


$$$$
C3055-P201
     RDKit          3D

 54 57  0  0  0  0  0  0  0  0999 V2000
   -2.3489    0.6203   27.2490 C   0  0  0  0  0  0  0  0  0  0  0  0
   -1.6011    0.2089   28.4103 N   0  0  0  0  0  0  0  0  0  0  0  0
   -0.4038    0.7221   28.8245 C   0  0  0  0  0  0  0  0  0  0  0  0
   -0.1019    0.0851   30.0027 C   0  0  0  0  0  0  0  0  0  0  0  0
   -1.1765   -0.8136   30.2097 C   0  0  0  0  0  0  0  0  0  0  0  0
   -1.1530   -2.0219   31.4676 S   0  0  0  0  0  0  0  0  0  0  0  0
   -0.8630   -1.2792   32.6764 O   0  0  0  0  0  0  0  0  0  0  0  0
   -2.3376   -2.8412   31.3277 O   0  0  0  0  0  0  0  0  0  0  0  0
    0.2333   -2.9450   31.1266 N   0  0  0  0  0  0  0  0  0  0  0  0
    0.1871   -3.7666   29.8953 C   0  0  0  0  0  0  0  0  0  0  0  0
    0.0206   -5.2601   30.1690 C   0  0  0  0  0  0  0  0  0  0  0  0
    0.3996   -5.7120   31.5562 C   0  0  0  0  0  0  0  0  0  0  0  0
   -0.1946   -5.0380   32.6962 N   0  0  0  0  0  0  0  0  0  0  0  0
    0.3390   -5.7507   33.8426 C   0  0  0  0  0  0  0  0  0  0  0  0
    1.7532   -5.2625   34.2568 C   0  0  0  0  0  0  0  0  0  0  0  0
    3.0081   -5.5189   33.3565 C   0  0  0  0  0  0  0  0  0  0  0  0
    3.4625   -4.5429   32.2580 C   0  0  0  0  0  0  0  0  0  0  0  0
    3.8619   -3.2467   32.5606 C   0  0  0  0  0  0  0  0  0  0  0  0
    4.3626   -2.4492   31.5308 C   0  0  0  0  0  0  0  0  0  0  0  0
    4.4841   -2.8265   30.2340 N   0  0  0  0  0  0  0  0  0  0  0  0
    4.0963   -4.0738   29.9404 C   0  0  0  0  0  0  0  0  0  0  0  0
    3.5926   -4.9404   30.8997 C   0  0  0  0  0  0  0  0  0  0  0  0
    0.1914   -7.1832   33.3310 C   0  0  0  0  0  0  0  0  0  0  0  0
   -1.2400   -7.6624   33.4051 C   0  0  0  0  0  0  0  0  0  0  0  0
   -1.3952   -8.5029   32.2298 N   0  0  0  0  0  0  0  0  0  0  0  0
   -0.6188   -7.8771   31.2228 N   0  0  0  0  0  0  0  0  0  0  0  0
    0.4510   -7.1401   31.8666 N   0  0  0  0  0  0  0  0  0  0  0  0
   -2.1052   -0.7171   29.2492 N   0  0  0  0  0  0  0  0  0  0  0  0
   -2.8467   -0.2488   26.8216 H   0  0  0  0  0  0  0  0  0  0  0  0
   -1.6697    1.0712   26.5239 H   0  0  0  0  0  0  0  0  0  0  0  0
   -3.0862    1.3605   27.5650 H   0  0  0  0  0  0  0  0  0  0  0  0
    0.1109    1.4851   28.2565 H   0  0  0  0  0  0  0  0  0  0  0  0
    0.7818    0.2226   30.6092 H   0  0  0  0  0  0  0  0  0  0  0  0
    1.0757   -2.3703   31.1949 H   0  0  0  0  0  0  0  0  0  0  0  0
    1.1347   -3.6022   29.3686 H   0  0  0  0  0  0  0  0  0  0  0  0
   -0.5889   -3.4261   29.2017 H   0  0  0  0  0  0  0  0  0  0  0  0
    0.6490   -5.7936   29.4458 H   0  0  0  0  0  0  0  0  0  0  0  0
   -0.9934   -5.5742   29.9499 H   0  0  0  0  0  0  0  0  0  0  0  0
    1.4262   -5.4303   31.5717 H   0  0  0  0  0  0  0  0  0  0  0  0
    0.0863   -4.0592   32.6819 H   0  0  0  0  0  0  0  0  0  0  0  0
   -0.3214   -5.5822   34.7023 H   0  0  0  0  0  0  0  0  0  0  0  0
    1.9652   -5.7668   35.2104 H   0  0  0  0  0  0  0  0  0  0  0  0
    1.7032   -4.1914   34.4913 H   0  0  0  0  0  0  0  0  0  0  0  0
    2.9122   -6.5181   32.9319 H   0  0  0  0  0  0  0  0  0  0  0  0
    3.8707   -5.5911   34.0350 H   0  0  0  0  0  0  0  0  0  0  0  0
    3.8200   -2.8611   33.5741 H   0  0  0  0  0  0  0  0  0  0  0  0
    4.7004   -1.4362   31.7406 H   0  0  0  0  0  0  0  0  0  0  0  0
    4.1966   -4.3695   28.9012 H   0  0  0  0  0  0  0  0  0  0  0  0
    3.2814   -5.9227   30.5705 H   0  0  0  0  0  0  0  0  0  0  0  0
    0.8802   -7.8587   33.8395 H   0  0  0  0  0  0  0  0  0  0  0  0
   -1.4456   -8.1904   34.3371 H   0  0  0  0  0  0  0  0  0  0  0  0
   -1.9231   -6.8172   33.3519 H   0  0  0  0  0  0  0  0  0  0  0  0
   -2.3895   -8.5857   32.0063 H   0  0  0  0  0  0  0  0  0  0  0  0
   -0.1999   -8.6038   30.6206 H   0  0  0  0  0  0  0  0  0  0  0  0
  1  2  1  0
  2  3  1  0
  3  4  2  0
  4  5  1  0
  5  6  1  0
  6  7  2  0
  6  8  2  0
  6  9  1  0
  9 10  1  0
 10 11  1  0
 11 12  1  0
 12 13  1  0
 13 14  1  0
 14 15  1  0
 15 16  1  0
 16 17  1  0
 17 18  2  0
 18 19  1  0
 19 20  2  0
 20 21  1  0
 21 22  2  0
 14 23  1  0
 23 24  1  0
 24 25  1  0
 25 26  1  0
 26 27  1  0
  5 28  2  0
 28  2  1  0
 27 12  1  0
 22 17  1  0
 27 23  1  0
  1 29  1  0
  1 30  1  0
  1 31  1  0
  3 32  1  0
  4 33  1  0
  9 34  1  0
 10 35  1  0
 10 36  1  0
 11 37  1  0
 11 38  1  0
 12 39  1  0
 13 40  1  0
 14 41  1  0
 15 42  1  0
 15 43  1  0
 16 44  1  0
 16 45  1  0
 18 46  1  0
 19 47  1  0
 21 48  1  0
 22 49  1  0
 23 50  1  0
 24 51  1  0
 24 52  1  0
 25 53  1  0
 26 54  1  0
M  END
>  <Energy>  (1033) 
124.45886890618226

>  <compound_id>  (1033) 
3055

>  <target_id>  (1033) 
1

>  <reference_id>  (1033) 
201

>  <inspiration_ids>  (1033) 
[194, 201]

>  <energy_score>  (1033) 
-33.99373702728664

>  <distance_score>  (1033) 
1.5909955536800064

>  <path>  (1033) 
/opt/xchem-fragalysis-2/maxwin/BulkDock/SCRATCH/505736/C3055-P201/C3055-P201.minimised.mol

>  <scratch_subdir>  (1033) 
/opt/xchem-fragalysis-2/maxwin/BulkDock/SCRATCH/505736/C3055-P201

>  <fragmenstein_runtime>  (1033) 
5.271185398101807

>  <fragmenstein_outcome>  (1033) 
too moved

>  <fragmenstein_mode>  (1033) 
expansion

>  <fragmenstein_error>  (1033) 


$$$$
C2661-P195
     RDKit          3D

 57 60  0  0  0  0  0  0  0  0999 V2000
   -0.5051   -6.5883   34.9627 C   0  0  0  0  0  0  0  0  0  0  0  0
   -0.2439   -6.6415   33.4888 C   0  0  0  0  0  0  0  0  0  0  0  0
   -0.8756   -7.5681   32.6981 C   0  0  0  0  0  0  0  0  0  0  0  0
   -0.4801   -7.5764   31.3890 C   0  0  0  0  0  0  0  0  0  0  0  0
   -0.9777   -8.5201   30.5487 O   0  0  0  0  0  0  0  0  0  0  0  0
    0.4219   -6.7619   30.8282 N   0  0  0  0  0  0  0  0  0  0  0  0
    0.9196   -5.8326   31.6618 C   0  0  0  0  0  0  0  0  0  0  0  0
    1.8487   -4.7730   31.1248 C   0  0  0  0  0  0  0  0  0  0  0  0
    1.3520   -4.0355   29.8641 C   0  0  0  0  0  0  0  0  0  0  0  0
   -0.1388   -3.7699   29.9620 N   0  0  0  0  0  0  0  0  0  0  0  0
   -0.8313   -2.6792   31.0608 S   0  0  0  0  0  0  0  0  0  0  0  0
    0.0682   -2.4632   32.1683 O   0  0  0  0  0  0  0  0  0  0  0  0
   -2.2113   -3.0686   31.2597 O   0  0  0  0  0  0  0  0  0  0  0  0
   -0.9054   -1.1405   30.2261 C   0  0  0  0  0  0  0  0  0  0  0  0
   -0.3326    0.0660   30.6842 C   0  0  0  0  0  0  0  0  0  0  0  0
   -0.4683    0.9361   29.6271 C   0  0  0  0  0  0  0  0  0  0  0  0
   -1.1541    0.2598   28.6595 N   0  0  0  0  0  0  0  0  0  0  0  0
   -1.6105    0.7984   27.4005 C   0  0  0  0  0  0  0  0  0  0  0  0
   -1.3597   -1.0332   28.9647 N   0  0  0  0  0  0  0  0  0  0  0  0
    2.1598   -2.7191   29.4416 C   0  0  0  0  0  0  0  0  0  0  0  0
    2.8703   -2.0322   30.6623 C   0  0  0  0  0  0  0  0  0  0  0  0
    3.3002   -0.6992   30.1774 C   0  0  0  0  0  0  0  0  0  0  0  0
    3.8697    0.5641   31.1396 S   0  0  0  0  0  0  0  0  0  0  0  0
    4.0444    1.5768   29.7636 C   0  0  0  0  0  0  0  0  0  0  0  0
    3.6697    0.9401   28.5964 C   0  0  0  0  0  0  0  0  0  0  0  0
    3.2363   -0.3935   28.8416 C   0  0  0  0  0  0  0  0  0  0  0  0
    2.7443   -1.4276   27.8840 C   0  0  0  0  0  0  0  0  0  0  0  0
    3.3232   -2.7868   28.1972 N   0  0  0  0  0  0  0  0  0  0  0  0
    3.2285   -4.0202   27.4972 C   0  0  0  0  0  0  0  0  0  0  0  0
    2.5857   -4.3203   26.5218 O   0  0  0  0  0  0  0  0  0  0  0  0
    4.1900   -5.1002   28.0250 C   0  0  0  0  0  0  0  0  0  0  0  0
    5.2087   -4.6806   29.4439 S   0  0  0  0  0  0  0  0  0  0  0  0
    3.2916   -6.6055   28.2304 Cl  0  0  0  0  0  0  0  0  0  0  0  0
    0.6611   -5.7787   32.9843 N   0  0  0  0  0  0  0  0  0  0  0  0
   -0.0462   -5.6997   35.4078 H   0  0  0  0  0  0  0  0  0  0  0  0
   -1.5799   -6.5491   35.1610 H   0  0  0  0  0  0  0  0  0  0  0  0
   -0.0855   -7.4745   35.4495 H   0  0  0  0  0  0  0  0  0  0  0  0
   -1.5942   -8.2770   33.0822 H   0  0  0  0  0  0  0  0  0  0  0  0
   -0.2956   -8.5055   29.8545 H   0  0  0  0  0  0  0  0  0  0  0  0
    2.0357   -4.0702   31.9413 H   0  0  0  0  0  0  0  0  0  0  0  0
    2.8067   -5.2523   30.9227 H   0  0  0  0  0  0  0  0  0  0  0  0
    1.3962   -4.7364   29.0287 H   0  0  0  0  0  0  0  0  0  0  0  0
   -0.6270   -3.6969   29.0571 H   0  0  0  0  0  0  0  0  0  0  0  0
    0.1586    0.2544   31.6293 H   0  0  0  0  0  0  0  0  0  0  0  0
   -0.1640    1.9661   29.4929 H   0  0  0  0  0  0  0  0  0  0  0  0
   -2.3588    1.5667   27.6084 H   0  0  0  0  0  0  0  0  0  0  0  0
   -0.7521    1.2362   26.8868 H   0  0  0  0  0  0  0  0  0  0  0  0
   -2.0481    0.0009   26.7977 H   0  0  0  0  0  0  0  0  0  0  0  0
    1.3057   -2.0998   29.1514 H   0  0  0  0  0  0  0  0  0  0  0  0
    2.2066   -1.9033   31.5141 H   0  0  0  0  0  0  0  0  0  0  0  0
    3.7405   -2.6087   30.9880 H   0  0  0  0  0  0  0  0  0  0  0  0
    4.4144    2.5867   29.8788 H   0  0  0  0  0  0  0  0  0  0  0  0
    3.7119    1.4134   27.6223 H   0  0  0  0  0  0  0  0  0  0  0  0
    1.6942   -1.3807   27.5690 H   0  0  0  0  0  0  0  0  0  0  0  0
    3.2541   -1.1933   26.9364 H   0  0  0  0  0  0  0  0  0  0  0  0
    4.8960   -5.2784   27.2060 H   0  0  0  0  0  0  0  0  0  0  0  0
    5.5549   -3.4603   29.0005 H   0  0  0  0  0  0  0  0  0  0  0  0
  1  2  1  0
  2  3  2  0
  3  4  1  0
  4  5  1  0
  4  6  2  0
  6  7  1  0
  7  8  1  0
  8  9  1  0
  9 10  1  0
 10 11  1  0
 11 12  2  0
 11 13  2  0
 11 14  1  0
 14 15  1  0
 15 16  2  0
 16 17  1  0
 17 18  1  0
 17 19  1  0
  9 20  1  0
 20 21  1  0
 21 22  1  0
 22 23  1  0
 23 24  1  0
 24 25  2  0
 25 26  1  0
 26 27  1  0
 27 28  1  0
 28 29  1  0
 29 30  2  0
 29 31  1  0
 31 32  1  0
 31 33  1  0
  7 34  2  0
 34  2  1  0
 19 14  2  0
 28 20  1  0
 26 22  2  0
  1 35  1  0
  1 36  1  0
  1 37  1  0
  3 38  1  0
  5 39  1  0
  8 40  1  0
  8 41  1  0
  9 42  1  0
 10 43  1  0
 15 44  1  0
 16 45  1  0
 18 46  1  0
 18 47  1  0
 18 48  1  0
 20 49  1  0
 21 50  1  0
 21 51  1  0
 24 52  1  0
 25 53  1  0
 27 54  1  0
 27 55  1  0
 31 56  1  0
 32 57  1  0
M  END
>  <Energy>  (1034) 
149.05697400607832

>  <compound_id>  (1034) 
2661

>  <target_id>  (1034) 
1

>  <reference_id>  (1034) 
195

>  <inspiration_ids>  (1034) 
[195, 40]

>  <energy_score>  (1034) 
-26.535324697702322

>  <distance_score>  (1034) 
2.4088411409577937

>  <path>  (1034) 
/opt/xchem-fragalysis-2/maxwin/BulkDock/SCRATCH/505736/C2661-P195/C2661-P195.minimised.mol

>  <scratch_subdir>  (1034) 
/opt/xchem-fragalysis-2/maxwin/BulkDock/SCRATCH/505736/C2661-P195

>  <fragmenstein_runtime>  (1034) 
13.758262395858765

>  <fragmenstein_outcome>  (1034) 
too moved

>  <fragmenstein_mode>  (1034) 
expansion

>  <fragmenstein_error>  (1034) 


$$$$
C2661-P40
     RDKit          3D

 57 60  0  0  0  0  0  0  0  0999 V2000
    2.5030   -6.7457   36.2257 C   0  0  0  0  0  0  0  0  0  0  0  0
    1.3084   -6.4705   35.3678 C   0  0  0  0  0  0  0  0  0  0  0  0
    0.3013   -7.4043   35.2627 C   0  0  0  0  0  0  0  0  0  0  0  0
   -0.7436   -7.0416   34.4600 C   0  0  0  0  0  0  0  0  0  0  0  0
   -1.8122   -7.8666   34.2800 O   0  0  0  0  0  0  0  0  0  0  0  0
   -0.8207   -5.8791   33.7945 N   0  0  0  0  0  0  0  0  0  0  0  0
    0.1659   -4.9976   34.0214 C   0  0  0  0  0  0  0  0  0  0  0  0
    0.1063   -3.6563   33.3258 C   0  0  0  0  0  0  0  0  0  0  0  0
    0.2486   -3.8442   31.8115 C   0  0  0  0  0  0  0  0  0  0  0  0
    0.0165   -2.6539   30.9588 N   0  0  0  0  0  0  0  0  0  0  0  0
   -1.0683   -1.4547   31.4493 S   0  0  0  0  0  0  0  0  0  0  0  0
   -0.5069   -0.7824   32.5998 O   0  0  0  0  0  0  0  0  0  0  0  0
   -2.3811   -2.0608   31.4650 O   0  0  0  0  0  0  0  0  0  0  0  0
   -1.0320   -0.2824   30.1541 C   0  0  0  0  0  0  0  0  0  0  0  0
   -0.0515    0.7314   30.0417 C   0  0  0  0  0  0  0  0  0  0  0  0
   -0.2890    1.3149   28.8195 C   0  0  0  0  0  0  0  0  0  0  0  0
   -1.3527    0.6488   28.2805 N   0  0  0  0  0  0  0  0  0  0  0  0
   -1.9842    0.9195   27.0116 C   0  0  0  0  0  0  0  0  0  0  0  0
   -1.8063   -0.3509   29.0599 N   0  0  0  0  0  0  0  0  0  0  0  0
    1.6495   -4.4896   31.3875 C   0  0  0  0  0  0  0  0  0  0  0  0
    2.9334   -3.8108   32.0429 C   0  0  0  0  0  0  0  0  0  0  0  0
    4.0614   -3.9489   31.1076 C   0  0  0  0  0  0  0  0  0  0  0  0
    5.7083   -3.9176   31.4367 S   0  0  0  0  0  0  0  0  0  0  0  0
    6.0655   -4.1887   29.7727 C   0  0  0  0  0  0  0  0  0  0  0  0
    4.9212   -4.2754   28.9992 C   0  0  0  0  0  0  0  0  0  0  0  0
    3.7582   -4.1233   29.7941 C   0  0  0  0  0  0  0  0  0  0  0  0
    2.3128   -4.0942   29.4921 C   0  0  0  0  0  0  0  0  0  0  0  0
    1.6146   -5.3179   30.0005 N   0  0  0  0  0  0  0  0  0  0  0  0
    0.3047   -5.8007   29.7596 C   0  0  0  0  0  0  0  0  0  0  0  0
   -0.6070   -5.3072   29.1622 O   0  0  0  0  0  0  0  0  0  0  0  0
    0.1547   -7.2091   30.3399 C   0  0  0  0  0  0  0  0  0  0  0  0
   -1.4432   -7.6208   31.0126 S   0  0  0  0  0  0  0  0  0  0  0  0
    0.5042   -8.3033   28.9958 Cl  0  0  0  0  0  0  0  0  0  0  0  0
    1.2647   -5.2766   34.7381 N   0  0  0  0  0  0  0  0  0  0  0  0
    3.2195   -5.9193   36.1748 H   0  0  0  0  0  0  0  0  0  0  0  0
    2.1994   -6.8704   37.2697 H   0  0  0  0  0  0  0  0  0  0  0  0
    3.0105   -7.6547   35.8875 H   0  0  0  0  0  0  0  0  0  0  0  0
    0.3264   -8.3447   35.7955 H   0  0  0  0  0  0  0  0  0  0  0  0
   -1.5534   -8.7892   34.4988 H   0  0  0  0  0  0  0  0  0  0  0  0
   -0.8646   -3.2190   33.5818 H   0  0  0  0  0  0  0  0  0  0  0  0
    0.8726   -2.9831   33.7240 H   0  0  0  0  0  0  0  0  0  0  0  0
   -0.5606   -4.5291   31.5408 H   0  0  0  0  0  0  0  0  0  0  0  0
   -0.3191   -2.9368   30.0217 H   0  0  0  0  0  0  0  0  0  0  0  0
    0.7260    0.9861   30.7488 H   0  0  0  0  0  0  0  0  0  0  0  0
    0.1918    2.1345   28.3023 H   0  0  0  0  0  0  0  0  0  0  0  0
   -1.2912    1.4812   26.3821 H   0  0  0  0  0  0  0  0  0  0  0  0
   -2.2395   -0.0282   26.5341 H   0  0  0  0  0  0  0  0  0  0  0  0
   -2.8798    1.5163   27.1950 H   0  0  0  0  0  0  0  0  0  0  0  0
    1.6392   -5.4020   32.0057 H   0  0  0  0  0  0  0  0  0  0  0  0
    2.7363   -2.7474   32.2237 H   0  0  0  0  0  0  0  0  0  0  0  0
    3.1607   -4.2756   33.0084 H   0  0  0  0  0  0  0  0  0  0  0  0
    7.0946   -4.2607   29.4463 H   0  0  0  0  0  0  0  0  0  0  0  0
    4.9397   -4.4287   27.9265 H   0  0  0  0  0  0  0  0  0  0  0  0
    1.8288   -3.1217   29.6190 H   0  0  0  0  0  0  0  0  0  0  0  0
    2.2283   -4.2234   28.4011 H   0  0  0  0  0  0  0  0  0  0  0  0
    0.8268   -7.3522   31.1750 H   0  0  0  0  0  0  0  0  0  0  0  0
   -1.4585   -6.7054   31.9978 H   0  0  0  0  0  0  0  0  0  0  0  0
  1  2  1  0
  2  3  2  0
  3  4  1  0
  4  5  1  0
  4  6  2  0
  6  7  1  0
  7  8  1  0
  8  9  1  0
  9 10  1  0
 10 11  1  0
 11 12  2  0
 11 13  2  0
 11 14  1  0
 14 15  1  0
 15 16  2  0
 16 17  1  0
 17 18  1  0
 17 19  1  0
  9 20  1  0
 20 21  1  0
 21 22  1  0
 22 23  1  0
 23 24  1  0
 24 25  2  0
 25 26  1  0
 26 27  1  0
 27 28  1  0
 28 29  1  0
 29 30  2  0
 29 31  1  0
 31 32  1  0
 31 33  1  0
  7 34  2  0
 34  2  1  0
 19 14  2  0
 28 20  1  0
 26 22  2  0
  1 35  1  0
  1 36  1  0
  1 37  1  0
  3 38  1  0
  5 39  1  0
  8 40  1  0
  8 41  1  0
  9 42  1  0
 10 43  1  0
 15 44  1  0
 16 45  1  0
 18 46  1  0
 18 47  1  0
 18 48  1  0
 20 49  1  0
 21 50  1  0
 21 51  1  0
 24 52  1  0
 25 53  1  0
 27 54  1  0
 27 55  1  0
 31 56  1  0
 32 57  1  0
M  END
>  <Energy>  (1035) 
146.42477082628696

>  <compound_id>  (1035) 
2661

>  <target_id>  (1035) 
1

>  <reference_id>  (1035) 
40

>  <inspiration_ids>  (1035) 
[195, 40]

>  <energy_score>  (1035) 
-29.167527877488737

>  <distance_score>  (1035) 
2.534450565040363

>  <path>  (1035) 
/opt/xchem-fragalysis-2/maxwin/BulkDock/SCRATCH/505736/C2661-P40/C2661-P40.minimised.mol

>  <scratch_subdir>  (1035) 
/opt/xchem-fragalysis-2/maxwin/BulkDock/SCRATCH/505736/C2661-P40

>  <fragmenstein_runtime>  (1035) 
11.262847900390625

>  <fragmenstein_outcome>  (1035) 
too moved

>  <fragmenstein_mode>  (1035) 
expansion

>  <fragmenstein_error>  (1035) 


$$$$
C3041-P195
     RDKit          3D

 38 39  0  0  0  0  0  0  0  0999 V2000
   -0.2327   -6.6270   35.6673 C   0  0  0  0  0  0  0  0  0  0  0  0
   -0.3127   -6.6992   34.1776 C   0  0  0  0  0  0  0  0  0  0  0  0
   -1.1660   -7.5765   33.5523 C   0  0  0  0  0  0  0  0  0  0  0  0
   -1.1532   -7.5653   32.1802 C   0  0  0  0  0  0  0  0  0  0  0  0
   -1.9440   -8.4110   31.4568 O   0  0  0  0  0  0  0  0  0  0  0  0
   -0.4353   -6.7087   31.4484 N   0  0  0  0  0  0  0  0  0  0  0  0
    0.2800   -5.8155   32.1539 C   0  0  0  0  0  0  0  0  0  0  0  0
    0.8523   -4.6075   31.4726 C   0  0  0  0  0  0  0  0  0  0  0  0
    2.3179   -4.8167   31.1650 C   0  0  0  0  0  0  0  0  0  0  0  0
    0.0304   -4.2387   30.2519 C   0  0  0  0  0  0  0  0  0  0  0  0
    0.0628   -2.7928   30.0038 N   0  0  0  0  0  0  0  0  0  0  0  0
   -0.9813   -1.8482   30.9766 S   0  0  0  0  0  0  0  0  0  0  0  0
   -0.2843   -1.4098   32.1652 O   0  0  0  0  0  0  0  0  0  0  0  0
   -2.2788   -2.4853   31.0401 O   0  0  0  0  0  0  0  0  0  0  0  0
   -1.1474   -0.4255   29.9778 C   0  0  0  0  0  0  0  0  0  0  0  0
   -0.3635    0.7401   30.1176 C   0  0  0  0  0  0  0  0  0  0  0  0
   -0.6112    1.4655   28.9746 C   0  0  0  0  0  0  0  0  0  0  0  0
   -1.4914    0.7267   28.2389 N   0  0  0  0  0  0  0  0  0  0  0  0
   -2.0628    1.0836   26.9644 C   0  0  0  0  0  0  0  0  0  0  0  0
   -1.7855   -0.4576   28.7972 N   0  0  0  0  0  0  0  0  0  0  0  0
    0.4307   -5.8265   33.4877 N   0  0  0  0  0  0  0  0  0  0  0  0
   -0.1079   -7.6274   36.0940 H   0  0  0  0  0  0  0  0  0  0  0  0
   -1.1450   -6.1771   36.0699 H   0  0  0  0  0  0  0  0  0  0  0  0
    0.6197   -6.0179   35.9849 H   0  0  0  0  0  0  0  0  0  0  0  0
   -1.8041   -8.2258   34.1300 H   0  0  0  0  0  0  0  0  0  0  0  0
   -2.5419   -8.8767   32.0741 H   0  0  0  0  0  0  0  0  0  0  0  0
    0.7979   -3.7899   32.2020 H   0  0  0  0  0  0  0  0  0  0  0  0
    2.8855   -5.0696   32.0675 H   0  0  0  0  0  0  0  0  0  0  0  0
    2.7604   -3.9102   30.7382 H   0  0  0  0  0  0  0  0  0  0  0  0
    2.4624   -5.6272   30.4429 H   0  0  0  0  0  0  0  0  0  0  0  0
    0.4104   -4.7469   29.3594 H   0  0  0  0  0  0  0  0  0  0  0  0
   -1.0135   -4.5340   30.3469 H   0  0  0  0  0  0  0  0  0  0  0  0
   -0.2191   -2.5920   29.0321 H   0  0  0  0  0  0  0  0  0  0  0  0
    0.3156    0.9915   30.9204 H   0  0  0  0  0  0  0  0  0  0  0  0
   -0.2496    2.4264   28.6342 H   0  0  0  0  0  0  0  0  0  0  0  0
   -2.2326    0.1775   26.3827 H   0  0  0  0  0  0  0  0  0  0  0  0
   -1.3663    1.7399   26.4374 H   0  0  0  0  0  0  0  0  0  0  0  0
   -3.0016    1.6115   27.1415 H   0  0  0  0  0  0  0  0  0  0  0  0
  1  2  1  0
  2  3  2  0
  3  4  1  0
  4  5  1  0
  4  6  2  0
  6  7  1  0
  7  8  1  0
  8  9  1  0
  8 10  1  0
 10 11  1  0
 11 12  1  0
 12 13  2  0
 12 14  2  0
 12 15  1  0
 15 16  1  0
 16 17  2  0
 17 18  1  0
 18 19  1  0
 18 20  1  0
  7 21  2  0
 21  2  1  0
 20 15  2  0
  1 22  1  0
  1 23  1  0
  1 24  1  0
  3 25  1  0
  5 26  1  0
  8 27  1  0
  9 28  1  0
  9 29  1  0
  9 30  1  0
 10 31  1  0
 10 32  1  0
 11 33  1  0
 16 34  1  0
 17 35  1  0
 19 36  1  0
 19 37  1  0
 19 38  1  0
M  END
>  <Energy>  (1036) 
-0.29007537146071449

>  <compound_id>  (1036) 
3041

>  <target_id>  (1036) 
1

>  <reference_id>  (1036) 
195

>  <inspiration_ids>  (1036) 
[195, 133]

>  <energy_score>  (1036) 
-26.573669196155976

>  <distance_score>  (1036) 
1.23199785440713

>  <path>  (1036) 
/opt/xchem-fragalysis-2/maxwin/BulkDock/SCRATCH/505736/C3041-P195/C3041-P195.minimised.mol

>  <scratch_subdir>  (1036) 
/opt/xchem-fragalysis-2/maxwin/BulkDock/SCRATCH/505736/C3041-P195

>  <fragmenstein_runtime>  (1036) 
2.8939197063446045

>  <fragmenstein_outcome>  (1036) 
too moved

>  <fragmenstein_mode>  (1036) 
expansion

>  <fragmenstein_error>  (1036) 


$$$$
C3041-P133
     RDKit          3D

 38 39  0  0  0  0  0  0  0  0999 V2000
   -0.6882   -6.7284   35.5096 C   0  0  0  0  0  0  0  0  0  0  0  0
   -0.5439   -6.7603   34.0246 C   0  0  0  0  0  0  0  0  0  0  0  0
   -1.1774   -7.7037   33.2552 C   0  0  0  0  0  0  0  0  0  0  0  0
   -0.8808   -7.6681   31.9207 C   0  0  0  0  0  0  0  0  0  0  0  0
   -1.2927   -8.6618   31.0955 O   0  0  0  0  0  0  0  0  0  0  0  0
   -0.1246   -6.7513   31.3165 N   0  0  0  0  0  0  0  0  0  0  0  0
    0.3231   -5.7913   32.1383 C   0  0  0  0  0  0  0  0  0  0  0  0
    0.9412   -4.5520   31.5816 C   0  0  0  0  0  0  0  0  0  0  0  0
    2.4317   -4.7292   31.4107 C   0  0  0  0  0  0  0  0  0  0  0  0
    0.2531   -4.1080   30.3037 C   0  0  0  0  0  0  0  0  0  0  0  0
    0.3101   -2.6562   30.2223 N   0  0  0  0  0  0  0  0  0  0  0  0
   -0.9017   -1.7664   30.9873 S   0  0  0  0  0  0  0  0  0  0  0  0
   -0.3439   -1.2319   32.2119 O   0  0  0  0  0  0  0  0  0  0  0  0
   -2.1502   -2.4951   30.9739 O   0  0  0  0  0  0  0  0  0  0  0  0
   -1.0483   -0.3901   29.9221 C   0  0  0  0  0  0  0  0  0  0  0  0
   -0.2363    0.7631   30.0331 C   0  0  0  0  0  0  0  0  0  0  0  0
   -0.4709    1.4718   28.8783 C   0  0  0  0  0  0  0  0  0  0  0  0
   -1.3651    0.7348   28.1585 N   0  0  0  0  0  0  0  0  0  0  0  0
   -1.9170    1.0731   26.8704 C   0  0  0  0  0  0  0  0  0  0  0  0
   -1.7088   -0.4160   28.7563 N   0  0  0  0  0  0  0  0  0  0  0  0
    0.2153   -5.8036   33.4748 N   0  0  0  0  0  0  0  0  0  0  0  0
   -1.6776   -6.3510   35.7783 H   0  0  0  0  0  0  0  0  0  0  0  0
    0.0633   -6.0742   35.9633 H   0  0  0  0  0  0  0  0  0  0  0  0
   -0.5584   -7.7303   35.9311 H   0  0  0  0  0  0  0  0  0  0  0  0
   -1.8215   -8.4566   33.6793 H   0  0  0  0  0  0  0  0  0  0  0  0
   -0.5951   -8.6080   30.4141 H   0  0  0  0  0  0  0  0  0  0  0  0
    0.8066   -3.7730   32.3452 H   0  0  0  0  0  0  0  0  0  0  0  0
    2.9060   -5.0749   32.3358 H   0  0  0  0  0  0  0  0  0  0  0  0
    2.9100   -3.7861   31.1256 H   0  0  0  0  0  0  0  0  0  0  0  0
    2.6476   -5.4577   30.6229 H   0  0  0  0  0  0  0  0  0  0  0  0
    0.7499   -4.5241   29.4197 H   0  0  0  0  0  0  0  0  0  0  0  0
   -0.7868   -4.4344   30.2451 H   0  0  0  0  0  0  0  0  0  0  0  0
    1.2236   -2.2132   30.2835 H   0  0  0  0  0  0  0  0  0  0  0  0
    0.4460    1.0214   30.8308 H   0  0  0  0  0  0  0  0  0  0  0  0
   -0.0887    2.4169   28.5169 H   0  0  0  0  0  0  0  0  0  0  0  0
   -2.0701    0.1601   26.2960 H   0  0  0  0  0  0  0  0  0  0  0  0
   -1.2151    1.7264   26.3466 H   0  0  0  0  0  0  0  0  0  0  0  0
   -2.8606    1.6002   27.0236 H   0  0  0  0  0  0  0  0  0  0  0  0
  1  2  1  0
  2  3  2  0
  3  4  1  0
  4  5  1  0
  4  6  2  0
  6  7  1  0
  7  8  1  0
  8  9  1  0
  8 10  1  0
 10 11  1  0
 11 12  1  0
 12 13  2  0
 12 14  2  0
 12 15  1  0
 15 16  1  0
 16 17  2  0
 17 18  1  0
 18 19  1  0
 18 20  1  0
  7 21  2  0
 21  2  1  0
 20 15  2  0
  1 22  1  0
  1 23  1  0
  1 24  1  0
  3 25  1  0
  5 26  1  0
  8 27  1  0
  9 28  1  0
  9 29  1  0
  9 30  1  0
 10 31  1  0
 10 32  1  0
 11 33  1  0
 16 34  1  0
 17 35  1  0
 19 36  1  0
 19 37  1  0
 19 38  1  0
M  END
>  <Energy>  (1037) 
-4.5592303434369033

>  <compound_id>  (1037) 
3041

>  <target_id>  (1037) 
1

>  <reference_id>  (1037) 
133

>  <inspiration_ids>  (1037) 
[195, 133]

>  <energy_score>  (1037) 
-30.842824168133802

>  <distance_score>  (1037) 
1.1454435220646397

>  <path>  (1037) 
/opt/xchem-fragalysis-2/maxwin/BulkDock/SCRATCH/505736/C3041-P133/C3041-P133.minimised.mol

>  <scratch_subdir>  (1037) 
/opt/xchem-fragalysis-2/maxwin/BulkDock/SCRATCH/505736/C3041-P133

>  <fragmenstein_runtime>  (1037) 
2.3779923915863037

>  <fragmenstein_outcome>  (1037) 
too moved

>  <fragmenstein_mode>  (1037) 
expansion

>  <fragmenstein_error>  (1037) 


$$$$
C157-P195
     RDKit          3D

 45 47  0  0  0  0  0  0  0  0999 V2000
    3.9553   -7.4280   36.2551 C   0  0  0  0  0  0  0  0  0  0  0  0
    2.9111   -7.4828   37.3359 C   0  0  0  0  0  0  0  0  0  0  0  0
    3.2938   -7.9144   38.6247 C   0  0  0  0  0  0  0  0  0  0  0  0
    2.3575   -8.0072   39.6530 C   0  0  0  0  0  0  0  0  0  0  0  0
    1.0421   -7.6497   39.4003 C   0  0  0  0  0  0  0  0  0  0  0  0
    0.1416   -7.7120   40.3906 F   0  0  0  0  0  0  0  0  0  0  0  0
    0.6428   -7.2251   38.1345 C   0  0  0  0  0  0  0  0  0  0  0  0
    1.5588   -7.1654   37.0815 C   0  0  0  0  0  0  0  0  0  0  0  0
    1.1254   -6.8931   35.7709 N   0  0  0  0  0  0  0  0  0  0  0  0
   -0.3084   -6.7061   35.2005 C   0  0  0  0  0  0  0  0  0  0  0  0
   -1.3431   -6.6730   35.7459 O   0  0  0  0  0  0  0  0  0  0  0  0
   -0.2760   -6.6651   33.7025 C   0  0  0  0  0  0  0  0  0  0  0  0
   -1.0532   -7.5922   33.0554 C   0  0  0  0  0  0  0  0  0  0  0  0
   -0.7998   -7.6994   31.7252 C   0  0  0  0  0  0  0  0  0  0  0  0
   -1.2984   -8.7368   31.0130 O   0  0  0  0  0  0  0  0  0  0  0  0
    0.0250   -6.9175   31.0310 N   0  0  0  0  0  0  0  0  0  0  0  0
    0.6483   -5.9593   31.7330 C   0  0  0  0  0  0  0  0  0  0  0  0
    1.3469   -4.9004   30.9221 C   0  0  0  0  0  0  0  0  0  0  0  0
    0.3532   -3.8043   30.5319 C   0  0  0  0  0  0  0  0  0  0  0  0
    0.1077   -2.9127   31.6959 N   0  0  0  0  0  0  0  0  0  0  0  0
   -1.3146   -1.9904   31.6214 S   0  0  0  0  0  0  0  0  0  0  0  0
   -1.2735   -1.0604   32.7285 O   0  0  0  0  0  0  0  0  0  0  0  0
   -2.4126   -2.9183   31.4485 O   0  0  0  0  0  0  0  0  0  0  0  0
   -1.2413   -0.9982   30.1907 C   0  0  0  0  0  0  0  0  0  0  0  0
   -0.6209    0.2353   30.1555 C   0  0  0  0  0  0  0  0  0  0  0  0
   -0.7088    0.8847   28.5700 S   0  0  0  0  0  0  0  0  0  0  0  0
   -1.5382   -0.5249   28.0570 C   0  0  0  0  0  0  0  0  0  0  0  0
   -1.7247   -1.4493   28.9726 N   0  0  0  0  0  0  0  0  0  0  0  0
    0.6058   -5.8396   33.0785 N   0  0  0  0  0  0  0  0  0  0  0  0
    3.9647   -6.4405   35.7823 H   0  0  0  0  0  0  0  0  0  0  0  0
    3.7561   -8.1940   35.4986 H   0  0  0  0  0  0  0  0  0  0  0  0
    4.9594   -7.6049   36.6550 H   0  0  0  0  0  0  0  0  0  0  0  0
    4.3275   -8.1824   38.8324 H   0  0  0  0  0  0  0  0  0  0  0  0
    2.6438   -8.3378   40.6454 H   0  0  0  0  0  0  0  0  0  0  0  0
   -0.3969   -6.9620   37.9863 H   0  0  0  0  0  0  0  0  0  0  0  0
    1.8016   -6.7893   35.0261 H   0  0  0  0  0  0  0  0  0  0  0  0
   -1.7201   -8.2627   33.5750 H   0  0  0  0  0  0  0  0  0  0  0  0
   -0.5993   -8.8512   30.3379 H   0  0  0  0  0  0  0  0  0  0  0  0
    1.7564   -5.3640   30.0168 H   0  0  0  0  0  0  0  0  0  0  0  0
    2.1896   -4.4919   31.4915 H   0  0  0  0  0  0  0  0  0  0  0  0
    0.7857   -3.1954   29.7305 H   0  0  0  0  0  0  0  0  0  0  0  0
   -0.5799   -4.2445   30.1662 H   0  0  0  0  0  0  0  0  0  0  0  0
    0.0830   -3.4086   32.5933 H   0  0  0  0  0  0  0  0  0  0  0  0
   -0.1416    0.7712   30.9627 H   0  0  0  0  0  0  0  0  0  0  0  0
   -1.8847   -0.6463   27.0384 H   0  0  0  0  0  0  0  0  0  0  0  0
  1  2  1  0
  2  3  2  0
  3  4  1  0
  4  5  2  0
  5  6  1  0
  5  7  1  0
  7  8  2  0
  8  9  1  0
  9 10  1  0
 10 11  2  0
 10 12  1  0
 12 13  2  0
 13 14  1  0
 14 15  1  0
 14 16  2  0
 16 17  1  0
 17 18  1  0
 18 19  1  0
 19 20  1  0
 20 21  1  0
 21 22  2  0
 21 23  2  0
 21 24  1  0
 24 25  2  0
 25 26  1  0
 26 27  1  0
 27 28  2  0
 17 29  2  0
  8  2  1  0
 29 12  1  0
 28 24  1  0
  1 30  1  0
  1 31  1  0
  1 32  1  0
  3 33  1  0
  4 34  1  0
  7 35  1  0
  9 36  1  0
 13 37  1  0
 15 38  1  0
 18 39  1  0
 18 40  1  0
 19 41  1  0
 19 42  1  0
 20 43  1  0
 25 44  1  0
 27 45  1  0
M  END
>  <Energy>  (1038) 
-12.747063666294657

>  <compound_id>  (1038) 
157

>  <target_id>  (1038) 
1

>  <reference_id>  (1038) 
195

>  <inspiration_ids>  (1038) 
[195, 145]

>  <energy_score>  (1038) 
-56.58916678234026

>  <distance_score>  (1038) 
1.137887234076551

>  <path>  (1038) 
/opt/xchem-fragalysis-2/maxwin/BulkDock/SCRATCH/505736/C157-P195/C157-P195.minimised.mol

>  <scratch_subdir>  (1038) 
/opt/xchem-fragalysis-2/maxwin/BulkDock/SCRATCH/505736/C157-P195

>  <fragmenstein_runtime>  (1038) 
7.678394079208374

>  <fragmenstein_outcome>  (1038) 
too moved

>  <fragmenstein_mode>  (1038) 
expansion

>  <fragmenstein_error>  (1038) 


$$$$
C157-P145
     RDKit          3D

 45 47  0  0  0  0  0  0  0  0999 V2000
    4.1178   -7.7466   36.2546 C   0  0  0  0  0  0  0  0  0  0  0  0
    3.1175   -7.6997   37.3764 C   0  0  0  0  0  0  0  0  0  0  0  0
    3.5046   -8.1661   38.6508 C   0  0  0  0  0  0  0  0  0  0  0  0
    2.6064   -8.1656   39.7181 C   0  0  0  0  0  0  0  0  0  0  0  0
    1.3262   -7.6743   39.5223 C   0  0  0  0  0  0  0  0  0  0  0  0
    0.4637   -7.6474   40.5467 F   0  0  0  0  0  0  0  0  0  0  0  0
    0.9207   -7.2124   38.2733 C   0  0  0  0  0  0  0  0  0  0  0  0
    1.7966   -7.2523   37.1810 C   0  0  0  0  0  0  0  0  0  0  0  0
    1.3159   -6.9659   35.8919 N   0  0  0  0  0  0  0  0  0  0  0  0
   -0.1226   -6.7050   35.3927 C   0  0  0  0  0  0  0  0  0  0  0  0
   -1.1230   -6.6106   35.9852 O   0  0  0  0  0  0  0  0  0  0  0  0
   -0.2355   -6.6694   33.9104 C   0  0  0  0  0  0  0  0  0  0  0  0
   -1.1488   -7.5593   33.3928 C   0  0  0  0  0  0  0  0  0  0  0  0
   -1.2334   -7.5640   32.0389 C   0  0  0  0  0  0  0  0  0  0  0  0
   -2.0468   -8.4384   31.3944 O   0  0  0  0  0  0  0  0  0  0  0  0
   -0.5445   -6.7405   31.2417 N   0  0  0  0  0  0  0  0  0  0  0  0
    0.2915   -5.8753   31.8428 C   0  0  0  0  0  0  0  0  0  0  0  0
    0.9675   -4.8662   30.9483 C   0  0  0  0  0  0  0  0  0  0  0  0
    0.0327   -3.7267   30.5815 C   0  0  0  0  0  0  0  0  0  0  0  0
   -0.1183   -2.8189   31.7439 N   0  0  0  0  0  0  0  0  0  0  0  0
   -1.4546   -1.7848   31.6623 S   0  0  0  0  0  0  0  0  0  0  0  0
   -1.3712   -0.8894   32.7940 O   0  0  0  0  0  0  0  0  0  0  0  0
   -2.6147   -2.6151   31.4224 O   0  0  0  0  0  0  0  0  0  0  0  0
   -1.2648   -0.7718   30.2576 C   0  0  0  0  0  0  0  0  0  0  0  0
   -0.7993    0.5272   30.3059 C   0  0  0  0  0  0  0  0  0  0  0  0
   -0.7177    1.1723   28.7189 S   0  0  0  0  0  0  0  0  0  0  0  0
   -1.3035   -0.3147   28.1017 C   0  0  0  0  0  0  0  0  0  0  0  0
   -1.4962   -1.2698   28.9827 N   0  0  0  0  0  0  0  0  0  0  0  0
    0.5414   -5.8450   33.1713 N   0  0  0  0  0  0  0  0  0  0  0  0
    4.1854   -6.7706   35.7631 H   0  0  0  0  0  0  0  0  0  0  0  0
    3.8280   -8.5046   35.5198 H   0  0  0  0  0  0  0  0  0  0  0  0
    5.1201   -7.9959   36.6187 H   0  0  0  0  0  0  0  0  0  0  0  0
    4.5119   -8.5425   38.8184 H   0  0  0  0  0  0  0  0  0  0  0  0
    2.8973   -8.5350   40.6961 H   0  0  0  0  0  0  0  0  0  0  0  0
   -0.0960   -6.8478   38.1755 H   0  0  0  0  0  0  0  0  0  0  0  0
    1.9342   -7.0692   35.0999 H   0  0  0  0  0  0  0  0  0  0  0  0
   -1.7314   -8.2180   34.0220 H   0  0  0  0  0  0  0  0  0  0  0  0
   -2.6695   -8.8644   32.0193 H   0  0  0  0  0  0  0  0  0  0  0  0
    1.2917   -5.3724   30.0328 H   0  0  0  0  0  0  0  0  0  0  0  0
    1.8559   -4.4659   31.4490 H   0  0  0  0  0  0  0  0  0  0  0  0
    0.4729   -3.1541   29.7581 H   0  0  0  0  0  0  0  0  0  0  0  0
   -0.9332   -4.1180   30.2548 H   0  0  0  0  0  0  0  0  0  0  0  0
   -0.1761   -3.2965   32.6491 H   0  0  0  0  0  0  0  0  0  0  0  0
   -0.5140    1.1081   31.1715 H   0  0  0  0  0  0  0  0  0  0  0  0
   -1.5050   -0.4535   27.0491 H   0  0  0  0  0  0  0  0  0  0  0  0
  1  2  1  0
  2  3  2  0
  3  4  1  0
  4  5  2  0
  5  6  1  0
  5  7  1  0
  7  8  2  0
  8  9  1  0
  9 10  1  0
 10 11  2  0
 10 12  1  0
 12 13  2  0
 13 14  1  0
 14 15  1  0
 14 16  2  0
 16 17  1  0
 17 18  1  0
 18 19  1  0
 19 20  1  0
 20 21  1  0
 21 22  2  0
 21 23  2  0
 21 24  1  0
 24 25  2  0
 25 26  1  0
 26 27  1  0
 27 28  2  0
 17 29  2  0
  8  2  1  0
 29 12  1  0
 28 24  1  0
  1 30  1  0
  1 31  1  0
  1 32  1  0
  3 33  1  0
  4 34  1  0
  7 35  1  0
  9 36  1  0
 13 37  1  0
 15 38  1  0
 18 39  1  0
 18 40  1  0
 19 41  1  0
 19 42  1  0
 20 43  1  0
 25 44  1  0
 27 45  1  0
M  END
>  <Energy>  (1039) 
-5.9948040671459406

>  <compound_id>  (1039) 
157

>  <target_id>  (1039) 
1

>  <reference_id>  (1039) 
145

>  <inspiration_ids>  (1039) 
[195, 145]

>  <energy_score>  (1039) 
-49.836907183190924

>  <distance_score>  (1039) 
1.1149761081247815

>  <path>  (1039) 
/opt/xchem-fragalysis-2/maxwin/BulkDock/SCRATCH/505736/C157-P145/C157-P145.minimised.mol

>  <scratch_subdir>  (1039) 
/opt/xchem-fragalysis-2/maxwin/BulkDock/SCRATCH/505736/C157-P145

>  <fragmenstein_runtime>  (1039) 
7.489835977554321

>  <fragmenstein_outcome>  (1039) 
too moved

>  <fragmenstein_mode>  (1039) 
expansion

>  <fragmenstein_error>  (1039) 


$$$$
C557-P195
     RDKit          3D

 57 59  0  0  0  0  0  0  0  0999 V2000
   -1.9296    8.3391   26.1940 C   0  0  0  0  0  0  0  0  0  0  0  0
   -1.9548    7.4487   24.9661 C   0  0  0  0  0  0  0  0  0  0  0  0
   -0.8512    6.4057   25.0372 C   0  0  0  0  0  0  0  0  0  0  0  0
    0.1967    6.5873   24.5482 O   0  0  0  0  0  0  0  0  0  0  0  0
   -1.3935    5.1841   25.8345 N   0  0  0  0  0  0  0  0  0  0  0  0
   -0.7456    4.0131   26.2613 C   0  0  0  0  0  0  0  0  0  0  0  0
   -1.5354    3.0210   26.8585 C   0  0  0  0  0  0  0  0  0  0  0  0
   -0.9629    1.8228   27.3281 C   0  0  0  0  0  0  0  0  0  0  0  0
   -1.7709    0.8918   28.0178 N   0  0  0  0  0  0  0  0  0  0  0  0
   -1.3839    0.4231   29.2395 C   0  0  0  0  0  0  0  0  0  0  0  0
   -1.8040   -0.7109   29.7541 N   0  0  0  0  0  0  0  0  0  0  0  0
   -1.2296   -0.8910   31.0037 C   0  0  0  0  0  0  0  0  0  0  0  0
   -1.3767   -2.3313   31.9458 S   0  0  0  0  0  0  0  0  0  0  0  0
   -1.3219   -1.8595   33.3115 O   0  0  0  0  0  0  0  0  0  0  0  0
   -2.4975   -3.0920   31.4460 O   0  0  0  0  0  0  0  0  0  0  0  0
    0.0482   -3.1824   31.6605 N   0  0  0  0  0  0  0  0  0  0  0  0
    0.2052   -3.8036   30.3180 C   0  0  0  0  0  0  0  0  0  0  0  0
    1.1779   -4.9809   30.4149 C   0  0  0  0  0  0  0  0  0  0  0  0
    0.5854   -6.0198   31.3275 C   0  0  0  0  0  0  0  0  0  0  0  0
    0.5551   -5.7157   32.6476 N   0  0  0  0  0  0  0  0  0  0  0  0
   -0.1914   -6.4999   33.4522 C   0  0  0  0  0  0  0  0  0  0  0  0
   -0.2052   -6.1803   34.9163 C   0  0  0  0  0  0  0  0  0  0  0  0
   -0.8981   -7.5687   32.9600 C   0  0  0  0  0  0  0  0  0  0  0  0
   -0.7330   -7.8136   31.6234 C   0  0  0  0  0  0  0  0  0  0  0  0
   -1.2450   -8.9395   31.0699 O   0  0  0  0  0  0  0  0  0  0  0  0
   -0.0117   -7.0801   30.7752 N   0  0  0  0  0  0  0  0  0  0  0  0
   -0.3597    0.0861   31.4298 C   0  0  0  0  0  0  0  0  0  0  0  0
   -0.2120    1.2638   30.2458 S   0  0  0  0  0  0  0  0  0  0  0  0
    0.4078    1.5671   27.1289 C   0  0  0  0  0  0  0  0  0  0  0  0
    1.0732    0.2618   27.5111 C   0  0  0  0  0  0  0  0  0  0  0  0
    1.1997    2.5814   26.5880 C   0  0  0  0  0  0  0  0  0  0  0  0
    0.6301    3.7757   26.1498 C   0  0  0  0  0  0  0  0  0  0  0  0
    1.5432    4.6402   25.6123 O   0  0  0  0  0  0  0  0  0  0  0  0
   -2.7624    9.0483   26.1688 H   0  0  0  0  0  0  0  0  0  0  0  0
   -1.9945    7.7599   27.1197 H   0  0  0  0  0  0  0  0  0  0  0  0
   -0.9964    8.9112   26.2352 H   0  0  0  0  0  0  0  0  0  0  0  0
   -2.9266    6.9672   24.8350 H   0  0  0  0  0  0  0  0  0  0  0  0
   -1.7928    8.0523   24.0652 H   0  0  0  0  0  0  0  0  0  0  0  0
   -2.3841    5.3263   26.0461 H   0  0  0  0  0  0  0  0  0  0  0  0
   -2.6017    3.1818   27.0107 H   0  0  0  0  0  0  0  0  0  0  0  0
   -2.1598    0.1786   27.4035 H   0  0  0  0  0  0  0  0  0  0  0  0
    0.1708   -3.8545   32.4320 H   0  0  0  0  0  0  0  0  0  0  0  0
   -0.7573   -4.1535   29.9334 H   0  0  0  0  0  0  0  0  0  0  0  0
    0.5978   -3.0496   29.6278 H   0  0  0  0  0  0  0  0  0  0  0  0
    1.3608   -5.4074   29.4239 H   0  0  0  0  0  0  0  0  0  0  0  0
    2.1436   -4.6560   30.8195 H   0  0  0  0  0  0  0  0  0  0  0  0
    0.3413   -5.2533   35.1174 H   0  0  0  0  0  0  0  0  0  0  0  0
    0.2688   -6.9888   35.4815 H   0  0  0  0  0  0  0  0  0  0  0  0
   -1.2331   -6.0517   35.2688 H   0  0  0  0  0  0  0  0  0  0  0  0
   -1.4950   -8.2127   33.5872 H   0  0  0  0  0  0  0  0  0  0  0  0
   -0.5598   -9.1391   30.3985 H   0  0  0  0  0  0  0  0  0  0  0  0
    0.2122    0.1167   32.3474 H   0  0  0  0  0  0  0  0  0  0  0  0
    0.3853   -0.5864   27.5091 H   0  0  0  0  0  0  0  0  0  0  0  0
    1.8811    0.0216   26.8127 H   0  0  0  0  0  0  0  0  0  0  0  0
    1.5718    0.3353   28.4797 H   0  0  0  0  0  0  0  0  0  0  0  0
    2.2712    2.4348   26.4640 H   0  0  0  0  0  0  0  0  0  0  0  0
    1.0837    5.3896   25.1862 H   0  0  0  0  0  0  0  0  0  0  0  0
  1  2  1  0
  2  3  1  0
  3  4  2  0
  3  5  1  0
  5  6  1  0
  6  7  2  0
  7  8  1  0
  8  9  1  0
  9 10  1  0
 10 11  2  0
 11 12  1  0
 12 13  1  0
 13 14  2  0
 13 15  2  0
 13 16  1  0
 16 17  1  0
 17 18  1  0
 18 19  1  0
 19 20  2  0
 20 21  1  0
 21 22  1  0
 21 23  2  0
 23 24  1  0
 24 25  1  0
 24 26  2  0
 12 27  2  0
 27 28  1  0
  8 29  2  0
 29 30  1  0
 29 31  1  0
 31 32  2  0
 32 33  1  0
 32  6  1  0
 28 10  1  0
 26 19  1  0
  1 34  1  0
  1 35  1  0
  1 36  1  0
  2 37  1  0
  2 38  1  0
  5 39  1  0
  7 40  1  0
  9 41  1  0
 16 42  1  0
 17 43  1  0
 17 44  1  0
 18 45  1  0
 18 46  1  0
 22 47  1  0
 22 48  1  0
 22 49  1  0
 23 50  1  0
 25 51  1  0
 27 52  1  0
 30 53  1  0
 30 54  1  0
 30 55  1  0
 31 56  1  0
 33 57  1  0
M  END
>  <Energy>  (1040) 
-46.231420794803654

>  <compound_id>  (1040) 
557

>  <target_id>  (1040) 
1

>  <reference_id>  (1040) 
195

>  <inspiration_ids>  (1040) 
[195, 147]

>  <energy_score>  (1040) 
-93.91197685510923

>  <distance_score>  (1040) 
1.2628700500241075

>  <path>  (1040) 
/opt/xchem-fragalysis-2/maxwin/BulkDock/SCRATCH/505736/C557-P195/C557-P195.minimised.mol

>  <scratch_subdir>  (1040) 
/opt/xchem-fragalysis-2/maxwin/BulkDock/SCRATCH/505736/C557-P195

>  <fragmenstein_runtime>  (1040) 
6.2718870639801025

>  <fragmenstein_outcome>  (1040) 
too moved

>  <fragmenstein_mode>  (1040) 
expansion

>  <fragmenstein_error>  (1040) 


$$$$
C557-P147
     RDKit          3D

 57 59  0  0  0  0  0  0  0  0999 V2000
   -2.2123    8.3458   25.3812 C   0  0  0  0  0  0  0  0  0  0  0  0
   -2.2121    7.1717   24.4206 C   0  0  0  0  0  0  0  0  0  0  0  0
   -1.0334    6.2538   24.7057 C   0  0  0  0  0  0  0  0  0  0  0  0
    0.0208    6.4498   24.2363 O   0  0  0  0  0  0  0  0  0  0  0  0
   -1.5101    5.1414   25.6845 N   0  0  0  0  0  0  0  0  0  0  0  0
   -0.8304    4.0223   26.1944 C   0  0  0  0  0  0  0  0  0  0  0  0
   -1.5914    3.0196   26.8117 C   0  0  0  0  0  0  0  0  0  0  0  0
   -0.9807    1.8597   27.3296 C   0  0  0  0  0  0  0  0  0  0  0  0
   -1.7710    0.8940   27.9926 N   0  0  0  0  0  0  0  0  0  0  0  0
   -1.4105    0.4231   29.2218 C   0  0  0  0  0  0  0  0  0  0  0  0
   -1.8033   -0.7349   29.7048 N   0  0  0  0  0  0  0  0  0  0  0  0
   -1.2849   -0.9029   30.9815 C   0  0  0  0  0  0  0  0  0  0  0  0
   -1.4247   -2.3532   31.9097 S   0  0  0  0  0  0  0  0  0  0  0  0
   -1.4200   -1.8901   33.2797 O   0  0  0  0  0  0  0  0  0  0  0  0
   -2.5143   -3.1345   31.3726 O   0  0  0  0  0  0  0  0  0  0  0  0
    0.0273   -3.1665   31.6609 N   0  0  0  0  0  0  0  0  0  0  0  0
    0.2350   -3.7869   30.3258 C   0  0  0  0  0  0  0  0  0  0  0  0
    1.1863   -4.9755   30.4624 C   0  0  0  0  0  0  0  0  0  0  0  0
    0.5508   -5.9983   31.3638 C   0  0  0  0  0  0  0  0  0  0  0  0
    0.5262   -5.7036   32.6855 N   0  0  0  0  0  0  0  0  0  0  0  0
   -0.2310   -6.4806   33.4866 C   0  0  0  0  0  0  0  0  0  0  0  0
   -0.2291   -6.1706   34.9524 C   0  0  0  0  0  0  0  0  0  0  0  0
   -0.9544   -7.5368   32.9904 C   0  0  0  0  0  0  0  0  0  0  0  0
   -0.8038   -7.7669   31.6496 C   0  0  0  0  0  0  0  0  0  0  0  0
   -1.3266   -8.8803   31.0832 O   0  0  0  0  0  0  0  0  0  0  0  0
   -0.0755   -7.0384   30.8044 N   0  0  0  0  0  0  0  0  0  0  0  0
   -0.4734    0.1025   31.4526 C   0  0  0  0  0  0  0  0  0  0  0  0
   -0.3195    1.2906   30.2821 S   0  0  0  0  0  0  0  0  0  0  0  0
    0.4043    1.6619   27.1706 C   0  0  0  0  0  0  0  0  0  0  0  0
    1.1181    0.3949   27.5854 C   0  0  0  0  0  0  0  0  0  0  0  0
    1.1663    2.6961   26.6252 C   0  0  0  0  0  0  0  0  0  0  0  0
    0.5575    3.8470   26.1320 C   0  0  0  0  0  0  0  0  0  0  0  0
    1.4440    4.7413   25.5978 O   0  0  0  0  0  0  0  0  0  0  0  0
   -3.0984    8.9681   25.2244 H   0  0  0  0  0  0  0  0  0  0  0  0
   -2.1970    8.0169   26.4245 H   0  0  0  0  0  0  0  0  0  0  0  0
   -1.3261    8.9707   25.2260 H   0  0  0  0  0  0  0  0  0  0  0  0
   -3.1550    6.6209   24.4577 H   0  0  0  0  0  0  0  0  0  0  0  0
   -2.1156    7.5323   23.3897 H   0  0  0  0  0  0  0  0  0  0  0  0
   -2.5181    5.2202   25.8258 H   0  0  0  0  0  0  0  0  0  0  0  0
   -2.6677    3.1363   26.9272 H   0  0  0  0  0  0  0  0  0  0  0  0
   -2.1203    0.1769   27.3595 H   0  0  0  0  0  0  0  0  0  0  0  0
    0.1565   -3.8259   32.4419 H   0  0  0  0  0  0  0  0  0  0  0  0
   -0.7127   -4.1228   29.8954 H   0  0  0  0  0  0  0  0  0  0  0  0
    0.6664   -3.0358   29.6559 H   0  0  0  0  0  0  0  0  0  0  0  0
    1.3983   -5.4120   29.4827 H   0  0  0  0  0  0  0  0  0  0  0  0
    2.1420   -4.6590   30.8962 H   0  0  0  0  0  0  0  0  0  0  0  0
   -1.2530   -6.0437   35.3170 H   0  0  0  0  0  0  0  0  0  0  0  0
    0.3200   -5.2454   35.1543 H   0  0  0  0  0  0  0  0  0  0  0  0
    0.2498   -6.9835   35.5071 H   0  0  0  0  0  0  0  0  0  0  0  0
   -1.5523   -8.1830   33.6145 H   0  0  0  0  0  0  0  0  0  0  0  0
   -0.6862   -9.0154   30.3556 H   0  0  0  0  0  0  0  0  0  0  0  0
    0.0547    0.1484   32.3955 H   0  0  0  0  0  0  0  0  0  0  0  0
    0.4690   -0.4828   27.5917 H   0  0  0  0  0  0  0  0  0  0  0  0
    1.9425    0.1786   26.8985 H   0  0  0  0  0  0  0  0  0  0  0  0
    1.5995    0.5109   28.5589 H   0  0  0  0  0  0  0  0  0  0  0  0
    2.2454    2.5941   26.5342 H   0  0  0  0  0  0  0  0  0  0  0  0
    0.9609    5.4320   25.1039 H   0  0  0  0  0  0  0  0  0  0  0  0
  1  2  1  0
  2  3  1  0
  3  4  2  0
  3  5  1  0
  5  6  1  0
  6  7  2  0
  7  8  1  0
  8  9  1  0
  9 10  1  0
 10 11  2  0
 11 12  1  0
 12 13  1  0
 13 14  2  0
 13 15  2  0
 13 16  1  0
 16 17  1  0
 17 18  1  0
 18 19  1  0
 19 20  2  0
 20 21  1  0
 21 22  1  0
 21 23  2  0
 23 24  1  0
 24 25  1  0
 24 26  2  0
 12 27  2  0
 27 28  1  0
  8 29  2  0
 29 30  1  0
 29 31  1  0
 31 32  2  0
 32 33  1  0
 32  6  1  0
 28 10  1  0
 26 19  1  0
  1 34  1  0
  1 35  1  0
  1 36  1  0
  2 37  1  0
  2 38  1  0
  5 39  1  0
  7 40  1  0
  9 41  1  0
 16 42  1  0
 17 43  1  0
 17 44  1  0
 18 45  1  0
 18 46  1  0
 22 47  1  0
 22 48  1  0
 22 49  1  0
 23 50  1  0
 25 51  1  0
 27 52  1  0
 30 53  1  0
 30 54  1  0
 30 55  1  0
 31 56  1  0
 33 57  1  0
M  END
>  <Energy>  (1041) 
-47.038080163388855

>  <compound_id>  (1041) 
557

>  <target_id>  (1041) 
1

>  <reference_id>  (1041) 
147

>  <inspiration_ids>  (1041) 
[195, 147]

>  <energy_score>  (1041) 
-94.71863622369608

>  <distance_score>  (1041) 
1.2713713502260198

>  <path>  (1041) 
/opt/xchem-fragalysis-2/maxwin/BulkDock/SCRATCH/505736/C557-P147/C557-P147.minimised.mol

>  <scratch_subdir>  (1041) 
/opt/xchem-fragalysis-2/maxwin/BulkDock/SCRATCH/505736/C557-P147

>  <fragmenstein_runtime>  (1041) 
7.238779067993164

>  <fragmenstein_outcome>  (1041) 
too moved

>  <fragmenstein_mode>  (1041) 
expansion

>  <fragmenstein_error>  (1041) 


$$$$
C161-P195
     RDKit          3D

 32 34  0  0  0  0  0  0  0  0999 V2000
   -0.9980   -1.1500   32.6541 O   0  0  0  0  0  0  0  0  0  0  0  0
   -1.1999   -2.0099   31.5076 S   0  0  0  0  0  0  0  0  0  0  0  0
   -2.3572   -2.8755   31.4107 O   0  0  0  0  0  0  0  0  0  0  0  0
    0.1803   -2.9792   31.3496 N   0  0  0  0  0  0  0  0  0  0  0  0
    0.2438   -3.7897   30.1019 C   0  0  0  0  0  0  0  0  0  0  0  0
    1.0763   -5.0537   30.3264 C   0  0  0  0  0  0  0  0  0  0  0  0
    0.2790   -6.1234   30.9977 C   0  0  0  0  0  0  0  0  0  0  0  0
   -0.2500   -7.1840   30.4156 N   0  0  0  0  0  0  0  0  0  0  0  0
   -0.9424   -7.8146   31.4039 C   0  0  0  0  0  0  0  0  0  0  0  0
   -1.7014   -8.8935   31.2147 O   0  0  0  0  0  0  0  0  0  0  0  0
   -0.8085   -7.1868   32.6101 C   0  0  0  0  0  0  0  0  0  0  0  0
   -1.2682   -7.3872   33.9221 C   0  0  0  0  0  0  0  0  0  0  0  0
   -0.9655   -6.4858   34.8541 C   0  0  0  0  0  0  0  0  0  0  0  0
   -0.1863   -5.3201   34.4012 C   0  0  0  0  0  0  0  0  0  0  0  0
    0.2840   -5.1041   33.2117 N   0  0  0  0  0  0  0  0  0  0  0  0
   -0.0410   -6.0841   32.3375 N   0  0  0  0  0  0  0  0  0  0  0  0
   -1.2287   -0.9427   30.1281 C   0  0  0  0  0  0  0  0  0  0  0  0
   -0.6065    0.2900   30.1098 C   0  0  0  0  0  0  0  0  0  0  0  0
   -0.7296    0.9798   28.5436 S   0  0  0  0  0  0  0  0  0  0  0  0
   -1.5732   -0.4144   28.0130 C   0  0  0  0  0  0  0  0  0  0  0  0
   -1.7573   -1.3535   28.9135 N   0  0  0  0  0  0  0  0  0  0  0  0
    0.2571   -3.5447   32.2065 H   0  0  0  0  0  0  0  0  0  0  0  0
    0.7259   -3.1714   29.3362 H   0  0  0  0  0  0  0  0  0  0  0  0
   -0.7556   -4.0555   29.7438 H   0  0  0  0  0  0  0  0  0  0  0  0
    1.9809   -4.8340   30.9060 H   0  0  0  0  0  0  0  0  0  0  0  0
    1.4120   -5.4354   29.3556 H   0  0  0  0  0  0  0  0  0  0  0  0
   -2.2304   -9.0920   32.0107 H   0  0  0  0  0  0  0  0  0  0  0  0
   -1.8665   -8.2494   34.1788 H   0  0  0  0  0  0  0  0  0  0  0  0
   -1.2666   -6.5546   35.8895 H   0  0  0  0  0  0  0  0  0  0  0  0
    0.0122   -4.5669   35.1829 H   0  0  0  0  0  0  0  0  0  0  0  0
   -0.0897    0.7954   30.9134 H   0  0  0  0  0  0  0  0  0  0  0  0
   -1.9307   -0.5155   26.9957 H   0  0  0  0  0  0  0  0  0  0  0  0
  1  2  2  0
  2  3  2  0
  2  4  1  0
  4  5  1  0
  5  6  1  0
  6  7  1  0
  7  8  2  0
  8  9  1  0
  9 10  1  0
  9 11  2  0
 11 12  1  0
 12 13  2  0
 13 14  1  0
 14 15  2  0
 15 16  1  0
  2 17  1  0
 17 18  2  0
 18 19  1  0
 19 20  1  0
 20 21  2  0
 16  7  1  0
 21 17  1  0
 16 11  1  0
  4 22  1  0
  5 23  1  0
  5 24  1  0
  6 25  1  0
  6 26  1  0
 10 27  1  0
 12 28  1  0
 13 29  1  0
 14 30  1  0
 18 31  1  0
 20 32  1  0
M  END
>  <Energy>  (1042) 
-11.633355810963948

>  <compound_id>  (1042) 
161

>  <target_id>  (1042) 
1

>  <reference_id>  (1042) 
195

>  <inspiration_ids>  (1042) 
[195, 149]

>  <energy_score>  (1042) 
-232.05722113055535

>  <distance_score>  (1042) 
1.2963252041662907

>  <path>  (1042) 
/opt/xchem-fragalysis-2/maxwin/BulkDock/SCRATCH/505736/C161-P195/C161-P195.minimised.mol

>  <scratch_subdir>  (1042) 
/opt/xchem-fragalysis-2/maxwin/BulkDock/SCRATCH/505736/C161-P195

>  <fragmenstein_runtime>  (1042) 
1.5446946620941162

>  <fragmenstein_outcome>  (1042) 
too moved

>  <fragmenstein_mode>  (1042) 
expansion

>  <fragmenstein_error>  (1042) 


$$$$
C161-P149
     RDKit          3D

 32 34  0  0  0  0  0  0  0  0999 V2000
   -0.9861   -1.1602   32.7001 O   0  0  0  0  0  0  0  0  0  0  0  0
   -1.2093   -2.0090   31.5491 S   0  0  0  0  0  0  0  0  0  0  0  0
   -2.4187   -2.7887   31.3963 O   0  0  0  0  0  0  0  0  0  0  0  0
    0.1053   -3.0416   31.4452 N   0  0  0  0  0  0  0  0  0  0  0  0
    0.2608   -3.8414   30.2186 C   0  0  0  0  0  0  0  0  0  0  0  0
    1.0284   -5.1215   30.5437 C   0  0  0  0  0  0  0  0  0  0  0  0
    0.1777   -6.1449   31.2214 C   0  0  0  0  0  0  0  0  0  0  0  0
   -0.4399   -7.1560   30.6341 N   0  0  0  0  0  0  0  0  0  0  0  0
   -1.0957   -7.7945   31.6407 C   0  0  0  0  0  0  0  0  0  0  0  0
   -1.8685   -8.8656   31.4700 O   0  0  0  0  0  0  0  0  0  0  0  0
   -0.8857   -7.2085   32.8526 C   0  0  0  0  0  0  0  0  0  0  0  0
   -1.3020   -7.4457   34.1733 C   0  0  0  0  0  0  0  0  0  0  0  0
   -0.8671   -6.6260   35.1285 C   0  0  0  0  0  0  0  0  0  0  0  0
    0.0382   -5.5429   34.6961 C   0  0  0  0  0  0  0  0  0  0  0  0
    0.4695   -5.3093   33.4976 N   0  0  0  0  0  0  0  0  0  0  0  0
   -0.0460   -6.1543   32.5834 N   0  0  0  0  0  0  0  0  0  0  0  0
   -1.1203   -0.9297   30.1776 C   0  0  0  0  0  0  0  0  0  0  0  0
   -0.6431    0.3637   30.2457 C   0  0  0  0  0  0  0  0  0  0  0  0
   -0.6752    1.0781   28.6852 S   0  0  0  0  0  0  0  0  0  0  0  0
   -1.2969   -0.3844   28.0458 C   0  0  0  0  0  0  0  0  0  0  0  0
   -1.4242   -1.3750   28.8991 N   0  0  0  0  0  0  0  0  0  0  0  0
    0.9513   -2.6465   31.8509 H   0  0  0  0  0  0  0  0  0  0  0  0
    0.8416   -3.2501   29.5019 H   0  0  0  0  0  0  0  0  0  0  0  0
   -0.7058   -4.0770   29.7658 H   0  0  0  0  0  0  0  0  0  0  0  0
    1.9082   -4.8944   31.1573 H   0  0  0  0  0  0  0  0  0  0  0  0
    1.4070   -5.5540   29.6121 H   0  0  0  0  0  0  0  0  0  0  0  0
   -2.4025   -9.0557   32.2637 H   0  0  0  0  0  0  0  0  0  0  0  0
   -1.9574   -8.2740   34.4143 H   0  0  0  0  0  0  0  0  0  0  0  0
   -1.1174   -6.7202   36.1754 H   0  0  0  0  0  0  0  0  0  0  0  0
    0.3859   -4.8835   35.5097 H   0  0  0  0  0  0  0  0  0  0  0  0
   -0.2961    0.9102   31.1110 H   0  0  0  0  0  0  0  0  0  0  0  0
   -1.5598   -0.4879   27.0009 H   0  0  0  0  0  0  0  0  0  0  0  0
  1  2  2  0
  2  3  2  0
  2  4  1  0
  4  5  1  0
  5  6  1  0
  6  7  1  0
  7  8  2  0
  8  9  1  0
  9 10  1  0
  9 11  2  0
 11 12  1  0
 12 13  2  0
 13 14  1  0
 14 15  2  0
 15 16  1  0
  2 17  1  0
 17 18  2  0
 18 19  1  0
 19 20  1  0
 20 21  2  0
 16  7  1  0
 21 17  1  0
 16 11  1  0
  4 22  1  0
  5 23  1  0
  5 24  1  0
  6 25  1  0
  6 26  1  0
 10 27  1  0
 12 28  1  0
 13 29  1  0
 14 30  1  0
 18 31  1  0
 20 32  1  0
M  END
>  <Energy>  (1043) 
-6.6074164197011518

>  <compound_id>  (1043) 
161

>  <target_id>  (1043) 
1

>  <reference_id>  (1043) 
149

>  <inspiration_ids>  (1043) 
[195, 149]

>  <energy_score>  (1043) 
-227.03128173929184

>  <distance_score>  (1043) 
1.3380326762858965

>  <path>  (1043) 
/opt/xchem-fragalysis-2/maxwin/BulkDock/SCRATCH/505736/C161-P149/C161-P149.minimised.mol

>  <scratch_subdir>  (1043) 
/opt/xchem-fragalysis-2/maxwin/BulkDock/SCRATCH/505736/C161-P149

>  <fragmenstein_runtime>  (1043) 
2.027100086212158

>  <fragmenstein_outcome>  (1043) 
too moved

>  <fragmenstein_mode>  (1043) 
expansion

>  <fragmenstein_error>  (1043) 


$$$$
C3063-P195
     RDKit          3D

 31 33  0  0  0  0  0  0  0  0999 V2000
   -0.9162   -1.1479   32.5240 O   0  0  0  0  0  0  0  0  0  0  0  0
   -1.2084   -1.9782   31.3748 S   0  0  0  0  0  0  0  0  0  0  0  0
   -2.3966   -2.7993   31.3024 O   0  0  0  0  0  0  0  0  0  0  0  0
    0.1355   -2.9487   31.1190 N   0  0  0  0  0  0  0  0  0  0  0  0
    0.2280   -3.6839   29.8434 C   0  0  0  0  0  0  0  0  0  0  0  0
    1.1433   -4.8998   30.0130 C   0  0  0  0  0  0  0  0  0  0  0  0
    0.4743   -5.9821   30.7864 C   0  0  0  0  0  0  0  0  0  0  0  0
   -0.0596   -7.0942   30.3091 N   0  0  0  0  0  0  0  0  0  0  0  0
   -0.6298   -7.6894   31.3909 C   0  0  0  0  0  0  0  0  0  0  0  0
   -1.2027   -8.8901   31.3409 O   0  0  0  0  0  0  0  0  0  0  0  0
   -0.4268   -6.9709   32.5315 C   0  0  0  0  0  0  0  0  0  0  0  0
   -0.7254   -7.0875   33.8999 C   0  0  0  0  0  0  0  0  0  0  0  0
   -0.2178   -6.2319   34.7266 N   0  0  0  0  0  0  0  0  0  0  0  0
    0.5638   -5.2169   34.2318 C   0  0  0  0  0  0  0  0  0  0  0  0
    0.8947   -5.0305   32.9929 N   0  0  0  0  0  0  0  0  0  0  0  0
    0.3411   -5.9220   32.1521 N   0  0  0  0  0  0  0  0  0  0  0  0
   -1.2625   -0.8688   30.0265 C   0  0  0  0  0  0  0  0  0  0  0  0
   -0.6566    0.3721   30.0389 C   0  0  0  0  0  0  0  0  0  0  0  0
   -0.7707    1.0900   28.4846 S   0  0  0  0  0  0  0  0  0  0  0  0
   -1.5918   -0.3032   27.9187 C   0  0  0  0  0  0  0  0  0  0  0  0
   -1.7657   -1.2643   28.7971 N   0  0  0  0  0  0  0  0  0  0  0  0
    0.9938   -2.5418   31.4848 H   0  0  0  0  0  0  0  0  0  0  0  0
    0.6649   -3.0147   29.0940 H   0  0  0  0  0  0  0  0  0  0  0  0
   -0.7616   -3.9974   29.4962 H   0  0  0  0  0  0  0  0  0  0  0  0
    2.0835   -4.6122   30.4993 H   0  0  0  0  0  0  0  0  0  0  0  0
    1.4164   -5.2864   29.0263 H   0  0  0  0  0  0  0  0  0  0  0  0
   -0.7255   -9.3833   30.6427 H   0  0  0  0  0  0  0  0  0  0  0  0
   -1.3703   -7.9002   34.2658 H   0  0  0  0  0  0  0  0  0  0  0  0
    0.9524   -4.5064   34.9815 H   0  0  0  0  0  0  0  0  0  0  0  0
   -0.1557    0.8707   30.8566 H   0  0  0  0  0  0  0  0  0  0  0  0
   -1.9413   -0.3883   26.8972 H   0  0  0  0  0  0  0  0  0  0  0  0
  1  2  2  0
  2  3  2  0
  2  4  1  0
  4  5  1  0
  5  6  1  0
  6  7  1  0
  7  8  2  0
  8  9  1  0
  9 10  1  0
  9 11  2  0
 11 12  1  0
 12 13  2  0
 13 14  1  0
 14 15  2  0
 15 16  1  0
  2 17  1  0
 17 18  2  0
 18 19  1  0
 19 20  1  0
 20 21  2  0
 16  7  1  0
 21 17  1  0
 16 11  1  0
  4 22  1  0
  5 23  1  0
  5 24  1  0
  6 25  1  0
  6 26  1  0
 10 27  1  0
 12 28  1  0
 14 29  1  0
 18 30  1  0
 20 31  1  0
M  END
>  <Energy>  (1044) 
-76.673353150999233

>  <compound_id>  (1044) 
3063

>  <target_id>  (1044) 
1

>  <reference_id>  (1044) 
195

>  <inspiration_ids>  (1044) 
[195, 152]

>  <energy_score>  (1044) 
-81.88626087226797

>  <distance_score>  (1044) 
1.1150728612192895

>  <path>  (1044) 
/opt/xchem-fragalysis-2/maxwin/BulkDock/SCRATCH/505736/C3063-P195/C3063-P195.minimised.mol

>  <scratch_subdir>  (1044) 
/opt/xchem-fragalysis-2/maxwin/BulkDock/SCRATCH/505736/C3063-P195

>  <fragmenstein_runtime>  (1044) 
1.7810206413269043

>  <fragmenstein_outcome>  (1044) 
too moved

>  <fragmenstein_mode>  (1044) 
expansion

>  <fragmenstein_error>  (1044) 


$$$$
C3063-P152
     RDKit          3D

 31 33  0  0  0  0  0  0  0  0999 V2000
   -0.8710   -1.1805   32.5578 O   0  0  0  0  0  0  0  0  0  0  0  0
   -1.1972   -2.0086   31.4169 S   0  0  0  0  0  0  0  0  0  0  0  0
   -2.4379   -2.7462   31.3257 O   0  0  0  0  0  0  0  0  0  0  0  0
    0.0804   -3.0790   31.1982 N   0  0  0  0  0  0  0  0  0  0  0  0
    0.1082   -3.8368   29.9291 C   0  0  0  0  0  0  0  0  0  0  0  0
    0.8599   -5.1495   30.1286 C   0  0  0  0  0  0  0  0  0  0  0  0
    0.1374   -6.0529   31.0677 C   0  0  0  0  0  0  0  0  0  0  0  0
   -0.8116   -6.9418   30.8039 N   0  0  0  0  0  0  0  0  0  0  0  0
   -1.1624   -7.4336   32.0288 C   0  0  0  0  0  0  0  0  0  0  0  0
   -2.1061   -8.3392   32.2666 O   0  0  0  0  0  0  0  0  0  0  0  0
   -0.4373   -6.8594   33.0268 C   0  0  0  0  0  0  0  0  0  0  0  0
   -0.3785   -6.9386   34.4278 C   0  0  0  0  0  0  0  0  0  0  0  0
    0.5031   -6.2264   35.0528 N   0  0  0  0  0  0  0  0  0  0  0  0
    1.3061   -5.3804   34.3268 C   0  0  0  0  0  0  0  0  0  0  0  0
    1.3273   -5.2474   33.0374 N   0  0  0  0  0  0  0  0  0  0  0  0
    0.4007   -5.9988   32.4128 N   0  0  0  0  0  0  0  0  0  0  0  0
   -1.1503   -0.9217   30.0478 C   0  0  0  0  0  0  0  0  0  0  0  0
   -0.5870    0.3375   30.0871 C   0  0  0  0  0  0  0  0  0  0  0  0
   -0.6100    1.0349   28.5193 S   0  0  0  0  0  0  0  0  0  0  0  0
   -1.3109   -0.4037   27.9060 C   0  0  0  0  0  0  0  0  0  0  0  0
   -1.5224   -1.3577   28.7838 N   0  0  0  0  0  0  0  0  0  0  0  0
    0.9682   -2.7039   31.5273 H   0  0  0  0  0  0  0  0  0  0  0  0
    0.6305   -3.2369   29.1760 H   0  0  0  0  0  0  0  0  0  0  0  0
   -0.9040   -4.0383   29.5688 H   0  0  0  0  0  0  0  0  0  0  0  0
    1.8742   -4.9456   30.4942 H   0  0  0  0  0  0  0  0  0  0  0  0
    0.9958   -5.6546   29.1745 H   0  0  0  0  0  0  0  0  0  0  0  0
   -2.8579   -8.2088   31.6642 H   0  0  0  0  0  0  0  0  0  0  0  0
   -1.0547   -7.6114   34.9812 H   0  0  0  0  0  0  0  0  0  0  0  0
    2.0131   -4.7732   34.9178 H   0  0  0  0  0  0  0  0  0  0  0  0
   -0.1693    0.8635   30.9339 H   0  0  0  0  0  0  0  0  0  0  0  0
   -1.5654   -0.5225   26.8596 H   0  0  0  0  0  0  0  0  0  0  0  0
  1  2  2  0
  2  3  2  0
  2  4  1  0
  4  5  1  0
  5  6  1  0
  6  7  1  0
  7  8  2  0
  8  9  1  0
  9 10  1  0
  9 11  2  0
 11 12  1  0
 12 13  2  0
 13 14  1  0
 14 15  2  0
 15 16  1  0
  2 17  1  0
 17 18  2  0
 18 19  1  0
 19 20  1  0
 20 21  2  0
 16  7  1  0
 21 17  1  0
 16 11  1  0
  4 22  1  0
  5 23  1  0
  5 24  1  0
  6 25  1  0
  6 26  1  0
 10 27  1  0
 12 28  1  0
 14 29  1  0
 18 30  1  0
 20 31  1  0
M  END
>  <Energy>  (1045) 
-77.246783928181259

>  <compound_id>  (1045) 
3063

>  <target_id>  (1045) 
1

>  <reference_id>  (1045) 
152

>  <inspiration_ids>  (1045) 
[195, 152]

>  <energy_score>  (1045) 
-82.45969164944954

>  <distance_score>  (1045) 
1.066906494631835

>  <path>  (1045) 
/opt/xchem-fragalysis-2/maxwin/BulkDock/SCRATCH/505736/C3063-P152/C3063-P152.minimised.mol

>  <scratch_subdir>  (1045) 
/opt/xchem-fragalysis-2/maxwin/BulkDock/SCRATCH/505736/C3063-P152

>  <fragmenstein_runtime>  (1045) 
1.413454294204712

>  <fragmenstein_outcome>  (1045) 
too moved

>  <fragmenstein_mode>  (1045) 
expansion

>  <fragmenstein_error>  (1045) 


$$$$
C164-P195
     RDKit          3D

 64 67  0  0  0  0  0  0  0  0999 V2000
    1.0591   -7.1833   34.6215 C   0  0  0  0  0  0  0  0  0  0  0  0
    0.4217   -7.0612   33.2874 C   0  0  0  0  0  0  0  0  0  0  0  0
   -0.7675   -7.6866   33.0210 C   0  0  0  0  0  0  0  0  0  0  0  0
   -1.1581   -7.6529   31.7148 C   0  0  0  0  0  0  0  0  0  0  0  0
   -2.2412   -8.3577   31.3002 O   0  0  0  0  0  0  0  0  0  0  0  0
   -0.5436   -6.9608   30.7503 N   0  0  0  0  0  0  0  0  0  0  0  0
    0.5451   -6.2847   31.1399 C   0  0  0  0  0  0  0  0  0  0  0  0
    1.0462   -5.1672   30.2685 C   0  0  0  0  0  0  0  0  0  0  0  0
    0.2494   -3.8966   30.5771 C   0  0  0  0  0  0  0  0  0  0  0  0
    0.3528   -3.5987   31.9947 N   0  0  0  0  0  0  0  0  0  0  0  0
   -0.6966   -2.6186   32.8390 S   0  0  0  0  0  0  0  0  0  0  0  0
   -2.0087   -3.1583   32.5921 O   0  0  0  0  0  0  0  0  0  0  0  0
    0.0856   -2.4943   34.1902 N   0  0  0  0  0  0  0  0  0  0  0  0
   -0.2224   -3.5876   35.2927 C   0  0  0  0  0  0  0  0  0  0  0  0
    0.9875   -3.9180   36.2370 C   0  0  0  0  0  0  0  0  0  0  0  0
    0.8058   -5.0461   37.3475 C   0  0  0  0  0  0  0  0  0  0  0  0
   -0.1995   -5.9592   36.8960 O   0  0  0  0  0  0  0  0  0  0  0  0
    2.1409   -5.8210   37.5937 C   0  0  0  0  0  0  0  0  0  0  0  0
    2.4593   -6.1202   39.0694 C   0  0  0  0  0  0  0  0  0  0  0  0
    1.2766   -6.6183   39.7690 N   0  0  0  0  0  0  0  0  0  0  0  0
    1.5714   -7.0212   41.1587 C   0  0  0  0  0  0  0  0  0  0  0  0
    2.5048   -8.1988   41.2095 C   0  0  0  0  0  0  0  0  0  0  0  0
    3.7004   -8.2649   42.0003 C   0  0  0  0  0  0  0  0  0  0  0  0
    4.3612   -9.4665   41.8656 C   0  0  0  0  0  0  0  0  0  0  0  0
    3.5550  -10.5238   40.7918 S   0  0  0  0  0  0  0  0  0  0  0  0
    2.3211   -9.3787   40.5136 C   0  0  0  0  0  0  0  0  0  0  0  0
    0.1954   -5.6123   39.7739 C   0  0  0  0  0  0  0  0  0  0  0  0
    0.3025   -4.5109   38.6918 C   0  0  0  0  0  0  0  0  0  0  0  0
   -0.6666   -1.1301   31.8822 C   0  0  0  0  0  0  0  0  0  0  0  0
    0.2916   -0.1424   31.9547 C   0  0  0  0  0  0  0  0  0  0  0  0
    0.2004    0.8719   30.5606 S   0  0  0  0  0  0  0  0  0  0  0  0
   -1.1382   -0.0323   29.9836 C   0  0  0  0  0  0  0  0  0  0  0  0
   -1.5023   -1.0381   30.7445 N   0  0  0  0  0  0  0  0  0  0  0  0
    1.1095   -6.3781   32.3590 N   0  0  0  0  0  0  0  0  0  0  0  0
    1.9312   -7.8390   34.5747 H   0  0  0  0  0  0  0  0  0  0  0  0
    0.3749   -7.6119   35.3551 H   0  0  0  0  0  0  0  0  0  0  0  0
    1.4138   -6.2063   34.9295 H   0  0  0  0  0  0  0  0  0  0  0  0
   -1.3142   -8.2158   33.7842 H   0  0  0  0  0  0  0  0  0  0  0  0
   -2.6712   -8.8000   32.0567 H   0  0  0  0  0  0  0  0  0  0  0  0
    0.9470   -5.4314   29.2160 H   0  0  0  0  0  0  0  0  0  0  0  0
    2.1151   -5.0069   30.4567 H   0  0  0  0  0  0  0  0  0  0  0  0
    0.6362   -3.0636   29.9808 H   0  0  0  0  0  0  0  0  0  0  0  0
   -0.7992   -4.0453   30.2961 H   0  0  0  0  0  0  0  0  0  0  0  0
    1.2907   -3.3687   32.2898 H   0  0  0  0  0  0  0  0  0  0  0  0
   -0.5328   -4.5057   34.7824 H   0  0  0  0  0  0  0  0  0  0  0  0
   -1.0687   -3.2224   35.8849 H   0  0  0  0  0  0  0  0  0  0  0  0
    1.3221   -2.9935   36.7252 H   0  0  0  0  0  0  0  0  0  0  0  0
    1.8195   -4.1988   35.5789 H   0  0  0  0  0  0  0  0  0  0  0  0
   -0.1591   -6.7456   37.4775 H   0  0  0  0  0  0  0  0  0  0  0  0
    2.9874   -5.2474   37.1969 H   0  0  0  0  0  0  0  0  0  0  0  0
    2.1240   -6.7759   37.0573 H   0  0  0  0  0  0  0  0  0  0  0  0
    2.8490   -5.2161   39.5563 H   0  0  0  0  0  0  0  0  0  0  0  0
    3.2740   -6.8532   39.0781 H   0  0  0  0  0  0  0  0  0  0  0  0
    0.6416   -7.3229   41.6596 H   0  0  0  0  0  0  0  0  0  0  0  0
    1.9911   -6.1811   41.7276 H   0  0  0  0  0  0  0  0  0  0  0  0
    4.0570   -7.4652   42.6386 H   0  0  0  0  0  0  0  0  0  0  0  0
    5.2794   -9.7728   42.3468 H   0  0  0  0  0  0  0  0  0  0  0  0
    1.5073   -9.5942   39.8367 H   0  0  0  0  0  0  0  0  0  0  0  0
    0.1327   -5.0936   40.7401 H   0  0  0  0  0  0  0  0  0  0  0  0
   -0.7550   -6.1449   39.6525 H   0  0  0  0  0  0  0  0  0  0  0  0
    0.9778   -3.7226   39.0489 H   0  0  0  0  0  0  0  0  0  0  0  0
   -0.6873   -4.0532   38.5704 H   0  0  0  0  0  0  0  0  0  0  0  0
    1.0716   -0.0211   32.6932 H   0  0  0  0  0  0  0  0  0  0  0  0
   -1.6397    0.2084   29.0532 H   0  0  0  0  0  0  0  0  0  0  0  0
  1  2  1  0
  2  3  2  0
  3  4  1  0
  4  5  1  0
  4  6  2  0
  6  7  1  0
  7  8  1  0
  8  9  1  0
  9 10  1  0
 10 11  1  0
 11 12  2  0
 11 13  2  0
 13 14  1  0
 14 15  1  0
 15 16  1  0
 16 17  1  0
 16 18  1  0
 18 19  1  0
 19 20  1  0
 20 21  1  0
 21 22  1  0
 22 23  1  0
 23 24  2  0
 24 25  1  0
 25 26  1  0
 20 27  1  0
 27 28  1  0
 11 29  1  0
 29 30  2  0
 30 31  1  0
 31 32  1  0
 32 33  2  0
  7 34  2  0
 34  2  1  0
 28 16  1  0
 33 29  1  0
 26 22  2  0
  1 35  1  0
  1 36  1  0
  1 37  1  0
  3 38  1  0
  5 39  1  0
  8 40  1  0
  8 41  1  0
  9 42  1  0
  9 43  1  0
 10 44  1  0
 14 45  1  0
 14 46  1  0
 15 47  1  0
 15 48  1  0
 17 49  1  0
 18 50  1  0
 18 51  1  0
 19 52  1  0
 19 53  1  0
 21 54  1  0
 21 55  1  0
 23 56  1  0
 24 57  1  0
 26 58  1  0
 27 59  1  0
 27 60  1  0
 28 61  1  0
 28 62  1  0
 30 63  1  0
 32 64  1  0
M  END
>  <Energy>  (1046) 
-27.827848124158734

>  <compound_id>  (1046) 
164

>  <target_id>  (1046) 
1

>  <reference_id>  (1046) 
195

>  <inspiration_ids>  (1046) 
[195, 153]

>  <energy_score>  (1046) 
-105.41744918224182

>  <distance_score>  (1046) 
1.7787442942628147

>  <path>  (1046) 
/opt/xchem-fragalysis-2/maxwin/BulkDock/SCRATCH/505736/C164-P195/C164-P195.minimised.mol

>  <scratch_subdir>  (1046) 
/opt/xchem-fragalysis-2/maxwin/BulkDock/SCRATCH/505736/C164-P195

>  <fragmenstein_runtime>  (1046) 
6.870564222335815

>  <fragmenstein_outcome>  (1046) 
too moved

>  <fragmenstein_mode>  (1046) 
expansion

>  <fragmenstein_error>  (1046) 


$$$$
C164-P153
     RDKit          3D

 64 67  0  0  0  0  0  0  0  0999 V2000
    0.4092   -7.2554   34.9863 C   0  0  0  0  0  0  0  0  0  0  0  0
   -0.0368   -7.1706   33.5768 C   0  0  0  0  0  0  0  0  0  0  0  0
   -1.1699   -7.8322   33.2183 C   0  0  0  0  0  0  0  0  0  0  0  0
   -1.4391   -7.7953   31.8902 C   0  0  0  0  0  0  0  0  0  0  0  0
   -2.4574   -8.5409   31.4092 O   0  0  0  0  0  0  0  0  0  0  0  0
   -0.7688   -7.0925   30.9694 N   0  0  0  0  0  0  0  0  0  0  0  0
    0.2707   -6.3916   31.4391 C   0  0  0  0  0  0  0  0  0  0  0  0
    0.9491   -5.4106   30.5190 C   0  0  0  0  0  0  0  0  0  0  0  0
    0.3574   -4.0141   30.6926 C   0  0  0  0  0  0  0  0  0  0  0  0
    0.6292   -3.5585   32.0443 N   0  0  0  0  0  0  0  0  0  0  0  0
   -0.4362   -2.6257   32.9343 S   0  0  0  0  0  0  0  0  0  0  0  0
   -1.7322   -3.2219   32.7359 O   0  0  0  0  0  0  0  0  0  0  0  0
    0.3579   -2.4418   34.2757 N   0  0  0  0  0  0  0  0  0  0  0  0
    0.4290   -3.7144   35.2096 C   0  0  0  0  0  0  0  0  0  0  0  0
    1.2500   -3.5576   36.5345 C   0  0  0  0  0  0  0  0  0  0  0  0
    1.4590   -4.8286   37.4578 C   0  0  0  0  0  0  0  0  0  0  0  0
    2.0808   -5.8366   36.6618 O   0  0  0  0  0  0  0  0  0  0  0  0
    2.4463   -4.5778   38.6168 C   0  0  0  0  0  0  0  0  0  0  0  0
    2.7387   -5.8531   39.4528 C   0  0  0  0  0  0  0  0  0  0  0  0
    1.7129   -6.9037   39.2989 N   0  0  0  0  0  0  0  0  0  0  0  0
    1.8040   -7.9267   40.3574 C   0  0  0  0  0  0  0  0  0  0  0  0
    3.1046   -8.6803   40.2814 C   0  0  0  0  0  0  0  0  0  0  0  0
    3.9940   -8.8797   41.3906 C   0  0  0  0  0  0  0  0  0  0  0  0
    5.1078   -9.6169   41.0542 C   0  0  0  0  0  0  0  0  0  0  0  0
    5.0936  -10.0847   39.4113 S   0  0  0  0  0  0  0  0  0  0  0  0
    3.6065   -9.2902   39.1456 C   0  0  0  0  0  0  0  0  0  0  0  0
    0.3773   -6.2948   39.3099 C   0  0  0  0  0  0  0  0  0  0  0  0
    0.1525   -5.3627   38.0970 C   0  0  0  0  0  0  0  0  0  0  0  0
   -0.5054   -1.1405   31.9723 C   0  0  0  0  0  0  0  0  0  0  0  0
    0.3594   -0.0733   32.0771 C   0  0  0  0  0  0  0  0  0  0  0  0
    0.2138    0.9400   30.6903 S   0  0  0  0  0  0  0  0  0  0  0  0
   -1.0200   -0.0729   30.0678 C   0  0  0  0  0  0  0  0  0  0  0  0
   -1.3158   -1.1135   30.8113 N   0  0  0  0  0  0  0  0  0  0  0  0
    0.7047   -6.4512   32.7139 N   0  0  0  0  0  0  0  0  0  0  0  0
    1.4969   -7.3418   35.0112 H   0  0  0  0  0  0  0  0  0  0  0  0
   -0.0009   -8.1273   35.5044 H   0  0  0  0  0  0  0  0  0  0  0  0
    0.0466   -6.3707   35.4906 H   0  0  0  0  0  0  0  0  0  0  0  0
   -1.7563   -8.3983   33.9254 H   0  0  0  0  0  0  0  0  0  0  0  0
   -2.9877   -8.9392   32.1286 H   0  0  0  0  0  0  0  0  0  0  0  0
    0.8293   -5.7367   29.4849 H   0  0  0  0  0  0  0  0  0  0  0  0
    2.0260   -5.4015   30.7231 H   0  0  0  0  0  0  0  0  0  0  0  0
    0.8029   -3.3208   29.9711 H   0  0  0  0  0  0  0  0  0  0  0  0
   -0.7182   -4.0437   30.4907 H   0  0  0  0  0  0  0  0  0  0  0  0
    1.5545   -3.1683   32.1498 H   0  0  0  0  0  0  0  0  0  0  0  0
    0.9041   -4.5003   34.6188 H   0  0  0  0  0  0  0  0  0  0  0  0
   -0.5980   -4.0115   35.4493 H   0  0  0  0  0  0  0  0  0  0  0  0
    0.7950   -2.7574   37.1318 H   0  0  0  0  0  0  0  0  0  0  0  0
    2.2441   -3.1936   36.2413 H   0  0  0  0  0  0  0  0  0  0  0  0
    2.1342   -6.6318   37.2350 H   0  0  0  0  0  0  0  0  0  0  0  0
    2.0381   -3.8003   39.2755 H   0  0  0  0  0  0  0  0  0  0  0  0
    3.3997   -4.2002   38.2262 H   0  0  0  0  0  0  0  0  0  0  0  0
    2.8497   -5.5505   40.5024 H   0  0  0  0  0  0  0  0  0  0  0  0
    3.7092   -6.2494   39.1310 H   0  0  0  0  0  0  0  0  0  0  0  0
    0.9973   -8.6609   40.2332 H   0  0  0  0  0  0  0  0  0  0  0  0
    1.6804   -7.4762   41.3508 H   0  0  0  0  0  0  0  0  0  0  0  0
    3.8224   -8.4941   42.3886 H   0  0  0  0  0  0  0  0  0  0  0  0
    5.9309   -9.9027   41.6940 H   0  0  0  0  0  0  0  0  0  0  0  0
    3.1583   -9.2908   38.1625 H   0  0  0  0  0  0  0  0  0  0  0  0
    0.2201   -5.7287   40.2382 H   0  0  0  0  0  0  0  0  0  0  0  0
   -0.3984   -7.0689   39.2836 H   0  0  0  0  0  0  0  0  0  0  0  0
   -0.4601   -4.5173   38.4356 H   0  0  0  0  0  0  0  0  0  0  0  0
   -0.4477   -5.9035   37.3636 H   0  0  0  0  0  0  0  0  0  0  0  0
    1.1037    0.1094   32.8398 H   0  0  0  0  0  0  0  0  0  0  0  0
   -1.5089    0.1277   29.1217 H   0  0  0  0  0  0  0  0  0  0  0  0
  1  2  1  0
  2  3  2  0
  3  4  1  0
  4  5  1  0
  4  6  2  0
  6  7  1  0
  7  8  1  0
  8  9  1  0
  9 10  1  0
 10 11  1  0
 11 12  2  0
 11 13  2  0
 13 14  1  0
 14 15  1  0
 15 16  1  0
 16 17  1  0
 16 18  1  0
 18 19  1  0
 19 20  1  0
 20 21  1  0
 21 22  1  0
 22 23  1  0
 23 24  2  0
 24 25  1  0
 25 26  1  0
 20 27  1  0
 27 28  1  0
 11 29  1  0
 29 30  2  0
 30 31  1  0
 31 32  1  0
 32 33  2  0
  7 34  2  0
 34  2  1  0
 28 16  1  0
 33 29  1  0
 26 22  2  0
  1 35  1  0
  1 36  1  0
  1 37  1  0
  3 38  1  0
  5 39  1  0
  8 40  1  0
  8 41  1  0
  9 42  1  0
  9 43  1  0
 10 44  1  0
 14 45  1  0
 14 46  1  0
 15 47  1  0
 15 48  1  0
 17 49  1  0
 18 50  1  0
 18 51  1  0
 19 52  1  0
 19 53  1  0
 21 54  1  0
 21 55  1  0
 23 56  1  0
 24 57  1  0
 26 58  1  0
 27 59  1  0
 27 60  1  0
 28 61  1  0
 28 62  1  0
 30 63  1  0
 32 64  1  0
M  END
>  <Energy>  (1047) 
-30.091781754652754

>  <compound_id>  (1047) 
164

>  <target_id>  (1047) 
1

>  <reference_id>  (1047) 
153

>  <inspiration_ids>  (1047) 
[195, 153]

>  <energy_score>  (1047) 
-107.68138281273704

>  <distance_score>  (1047) 
1.9756662748001885

>  <path>  (1047) 
/opt/xchem-fragalysis-2/maxwin/BulkDock/SCRATCH/505736/C164-P153/C164-P153.minimised.mol

>  <scratch_subdir>  (1047) 
/opt/xchem-fragalysis-2/maxwin/BulkDock/SCRATCH/505736/C164-P153

>  <fragmenstein_runtime>  (1047) 
7.741941452026367

>  <fragmenstein_outcome>  (1047) 
too moved

>  <fragmenstein_mode>  (1047) 
expansion

>  <fragmenstein_error>  (1047) 


$$$$
C165-P195
     RDKit          3D

 60 63  0  0  0  0  0  0  0  0999 V2000
    5.5027    1.1234   33.9226 C   0  0  0  0  0  0  0  0  0  0  0  0
    4.8670    0.1351   34.7427 N   0  0  0  0  0  0  0  0  0  0  0  0
    5.4779   -0.9823   35.6308 C   0  0  0  0  0  0  0  0  0  0  0  0
    6.5921   -1.2187   35.8898 O   0  0  0  0  0  0  0  0  0  0  0  0
    4.3106   -1.7795   36.2160 C   0  0  0  0  0  0  0  0  0  0  0  0
    3.6052   -2.6362   35.1928 C   0  0  0  0  0  0  0  0  0  0  0  0
    2.2449   -2.4576   34.9280 C   0  0  0  0  0  0  0  0  0  0  0  0
    1.5978   -3.2528   33.9784 C   0  0  0  0  0  0  0  0  0  0  0  0
    2.2838   -4.2557   33.2752 C   0  0  0  0  0  0  0  0  0  0  0  0
    1.6234   -5.1048   32.2100 C   0  0  0  0  0  0  0  0  0  0  0  0
    1.7116   -4.3924   30.8452 C   0  0  0  0  0  0  0  0  0  0  0  0
    0.9444   -3.0593   30.7174 C   0  0  0  0  0  0  0  0  0  0  0  0
   -0.4777   -3.2300   31.0198 N   0  0  0  0  0  0  0  0  0  0  0  0
   -1.4131   -1.8977   31.3849 S   0  0  0  0  0  0  0  0  0  0  0  0
   -0.7926   -1.1818   32.4787 O   0  0  0  0  0  0  0  0  0  0  0  0
   -2.7756   -2.3758   31.4690 O   0  0  0  0  0  0  0  0  0  0  0  0
   -1.3300   -0.8194   30.0192 C   0  0  0  0  0  0  0  0  0  0  0  0
   -0.6463    0.3803   30.0326 C   0  0  0  0  0  0  0  0  0  0  0  0
   -0.6816    1.0868   28.4702 S   0  0  0  0  0  0  0  0  0  0  0  0
   -1.5740   -0.2595   27.8995 C   0  0  0  0  0  0  0  0  0  0  0  0
   -1.8351   -1.1952   28.7835 N   0  0  0  0  0  0  0  0  0  0  0  0
    1.2392   -5.4185   29.8360 C   0  0  0  0  0  0  0  0  0  0  0  0
   -0.1282   -5.8453   30.0940 N   0  0  0  0  0  0  0  0  0  0  0  0
   -0.4309   -6.1543   31.4481 N   0  0  0  0  0  0  0  0  0  0  0  0
   -0.6499   -7.5638   31.7390 C   0  0  0  0  0  0  0  0  0  0  0  0
   -1.7966   -8.1129   31.1180 O   0  0  0  0  0  0  0  0  0  0  0  0
   -0.8272   -7.4896   33.2332 C   0  0  0  0  0  0  0  0  0  0  0  0
    0.2152   -6.4815   33.6647 C   0  0  0  0  0  0  0  0  0  0  0  0
   -0.1464   -5.8929   35.0225 C   0  0  0  0  0  0  0  0  0  0  0  0
    0.2403   -5.5033   32.5454 N   0  0  0  0  0  0  0  0  0  0  0  0
    3.6498   -4.4270   33.5516 C   0  0  0  0  0  0  0  0  0  0  0  0
    4.3007   -3.6334   34.5004 C   0  0  0  0  0  0  0  0  0  0  0  0
    5.1649    0.9895   32.8927 H   0  0  0  0  0  0  0  0  0  0  0  0
    5.2101    2.1128   34.2806 H   0  0  0  0  0  0  0  0  0  0  0  0
    6.5868    1.0063   33.9819 H   0  0  0  0  0  0  0  0  0  0  0  0
    3.8553    0.0996   34.8014 H   0  0  0  0  0  0  0  0  0  0  0  0
    4.6964   -2.4254   37.0146 H   0  0  0  0  0  0  0  0  0  0  0  0
    3.6172   -1.0800   36.6986 H   0  0  0  0  0  0  0  0  0  0  0  0
    1.6668   -1.7021   35.4567 H   0  0  0  0  0  0  0  0  0  0  0  0
    0.5360   -3.0841   33.8078 H   0  0  0  0  0  0  0  0  0  0  0  0
    2.2229   -6.0238   32.1251 H   0  0  0  0  0  0  0  0  0  0  0  0
    2.7660   -4.1726   30.6254 H   0  0  0  0  0  0  0  0  0  0  0  0
    1.0425   -2.6780   29.6944 H   0  0  0  0  0  0  0  0  0  0  0  0
    1.3912   -2.3137   31.3813 H   0  0  0  0  0  0  0  0  0  0  0  0
   -0.6558   -3.9975   31.6868 H   0  0  0  0  0  0  0  0  0  0  0  0
   -0.1340    0.8567   30.8565 H   0  0  0  0  0  0  0  0  0  0  0  0
   -1.9025   -0.3342   26.8707 H   0  0  0  0  0  0  0  0  0  0  0  0
    1.8987   -6.2873   29.8218 H   0  0  0  0  0  0  0  0  0  0  0  0
    1.3046   -4.9877   28.8309 H   0  0  0  0  0  0  0  0  0  0  0  0
   -0.7235   -5.0633   29.7891 H   0  0  0  0  0  0  0  0  0  0  0  0
    0.2204   -8.1520   31.4534 H   0  0  0  0  0  0  0  0  0  0  0  0
   -2.5524   -7.6550   31.5232 H   0  0  0  0  0  0  0  0  0  0  0  0
   -1.8331   -7.1631   33.5090 H   0  0  0  0  0  0  0  0  0  0  0  0
   -0.6682   -8.4457   33.7108 H   0  0  0  0  0  0  0  0  0  0  0  0
    1.1716   -7.0150   33.7560 H   0  0  0  0  0  0  0  0  0  0  0  0
    0.6865   -5.3350   35.4560 H   0  0  0  0  0  0  0  0  0  0  0  0
   -1.0086   -5.2220   34.9533 H   0  0  0  0  0  0  0  0  0  0  0  0
   -0.4009   -6.6882   35.7324 H   0  0  0  0  0  0  0  0  0  0  0  0
    4.2331   -5.1782   33.0260 H   0  0  0  0  0  0  0  0  0  0  0  0
    5.3614   -3.7939   34.6914 H   0  0  0  0  0  0  0  0  0  0  0  0
  1  2  1  0
  2  3  1  0
  3  4  2  0
  3  5  1  0
  5  6  1  0
  6  7  2  0
  7  8  1  0
  8  9  2  0
  9 10  1  0
 10 11  1  0
 11 12  1  0
 12 13  1  0
 13 14  1  0
 14 15  2  0
 14 16  2  0
 14 17  1  0
 17 18  2  0
 18 19  1  0
 19 20  1  0
 20 21  2  0
 11 22  1  0
 22 23  1  0
 23 24  1  0
 24 25  1  0
 25 26  1  0
 25 27  1  0
 27 28  1  0
 28 29  1  0
 28 30  1  0
  9 31  1  0
 31 32  2  0
 32  6  1  0
 30 10  1  0
 21 17  1  0
 30 24  1  0
  1 33  1  0
  1 34  1  0
  1 35  1  0
  2 36  1  0
  5 37  1  0
  5 38  1  0
  7 39  1  0
  8 40  1  0
 10 41  1  0
 11 42  1  0
 12 43  1  0
 12 44  1  0
 13 45  1  0
 18 46  1  0
 20 47  1  0
 22 48  1  0
 22 49  1  0
 23 50  1  0
 25 51  1  0
 26 52  1  0
 27 53  1  0
 27 54  1  0
 28 55  1  0
 29 56  1  0
 29 57  1  0
 29 58  1  0
 31 59  1  0
 32 60  1  0
M  END
>  <Energy>  (1048) 
51.169112432244631

>  <compound_id>  (1048) 
165

>  <target_id>  (1048) 
1

>  <reference_id>  (1048) 
195

>  <inspiration_ids>  (1048) 
[195, 154]

>  <energy_score>  (1048) 
-128.40700974905678

>  <distance_score>  (1048) 
5.678146670316803

>  <path>  (1048) 
/opt/xchem-fragalysis-2/maxwin/BulkDock/SCRATCH/505736/C165-P195/C165-P195.minimised.mol

>  <scratch_subdir>  (1048) 
/opt/xchem-fragalysis-2/maxwin/BulkDock/SCRATCH/505736/C165-P195

>  <fragmenstein_runtime>  (1048) 
47.18340444564819

>  <fragmenstein_outcome>  (1048) 
too moved

>  <fragmenstein_mode>  (1048) 
expansion

>  <fragmenstein_error>  (1048) 


$$$$
C165-P154
     RDKit          3D

 60 63  0  0  0  0  0  0  0  0999 V2000
    5.4696    1.5809   34.0541 C   0  0  0  0  0  0  0  0  0  0  0  0
    5.2713    0.2818   34.6290 N   0  0  0  0  0  0  0  0  0  0  0  0
    4.7077   -0.1144   35.8895 C   0  0  0  0  0  0  0  0  0  0  0  0
    4.1867    0.5336   36.7510 O   0  0  0  0  0  0  0  0  0  0  0  0
    4.8578   -1.6287   36.0795 C   0  0  0  0  0  0  0  0  0  0  0  0
    4.0761   -2.4509   35.0814 C   0  0  0  0  0  0  0  0  0  0  0  0
    2.6914   -2.2939   34.9638 C   0  0  0  0  0  0  0  0  0  0  0  0
    1.9647   -3.0570   34.0469 C   0  0  0  0  0  0  0  0  0  0  0  0
    2.5967   -4.0052   33.2294 C   0  0  0  0  0  0  0  0  0  0  0  0
    1.8378   -4.8178   32.1843 C   0  0  0  0  0  0  0  0  0  0  0  0
    1.8542   -4.0836   30.8267 C   0  0  0  0  0  0  0  0  0  0  0  0
    1.1730   -2.6993   30.7990 C   0  0  0  0  0  0  0  0  0  0  0  0
   -0.2749   -2.7761   31.0842 N   0  0  0  0  0  0  0  0  0  0  0  0
   -1.0584   -1.3762   31.5969 S   0  0  0  0  0  0  0  0  0  0  0  0
   -0.4146   -0.9290   32.8125 O   0  0  0  0  0  0  0  0  0  0  0  0
   -2.4783   -1.6479   31.5530 O   0  0  0  0  0  0  0  0  0  0  0  0
   -0.7550   -0.0928   30.4480 C   0  0  0  0  0  0  0  0  0  0  0  0
    0.4199    0.6380   30.4483 C   0  0  0  0  0  0  0  0  0  0  0  0
    0.4036    1.7786   29.1707 S   0  0  0  0  0  0  0  0  0  0  0  0
   -1.1844    1.2735   28.7704 C   0  0  0  0  0  0  0  0  0  0  0  0
   -1.6663    0.2620   29.4590 N   0  0  0  0  0  0  0  0  0  0  0  0
    1.2491   -5.0560   29.8223 C   0  0  0  0  0  0  0  0  0  0  0  0
   -0.1256   -5.3953   30.1662 N   0  0  0  0  0  0  0  0  0  0  0  0
   -0.3112   -5.7974   31.5146 N   0  0  0  0  0  0  0  0  0  0  0  0
   -0.4324   -7.2381   31.7153 C   0  0  0  0  0  0  0  0  0  0  0  0
   -1.5839   -7.8047   31.1136 O   0  0  0  0  0  0  0  0  0  0  0  0
   -0.5458   -7.2626   33.2199 C   0  0  0  0  0  0  0  0  0  0  0  0
    0.4951   -6.2472   33.6579 C   0  0  0  0  0  0  0  0  0  0  0  0
    0.2101   -5.7248   35.0600 C   0  0  0  0  0  0  0  0  0  0  0  0
    0.4615   -5.2034   32.5909 N   0  0  0  0  0  0  0  0  0  0  0  0
    3.9868   -4.1583   33.3565 C   0  0  0  0  0  0  0  0  0  0  0  0
    4.7169   -3.3976   34.2753 C   0  0  0  0  0  0  0  0  0  0  0  0
    5.1542    1.5520   33.0090 H   0  0  0  0  0  0  0  0  0  0  0  0
    6.5326    1.8258   34.1121 H   0  0  0  0  0  0  0  0  0  0  0  0
    4.8889    2.3221   34.6078 H   0  0  0  0  0  0  0  0  0  0  0  0
    5.7012   -0.5247   34.1914 H   0  0  0  0  0  0  0  0  0  0  0  0
    4.5215   -1.8913   37.0903 H   0  0  0  0  0  0  0  0  0  0  0  0
    5.9274   -1.8700   36.0389 H   0  0  0  0  0  0  0  0  0  0  0  0
    2.1609   -1.5722   35.5849 H   0  0  0  0  0  0  0  0  0  0  0  0
    0.8887   -2.9014   33.9891 H   0  0  0  0  0  0  0  0  0  0  0  0
    2.4107   -5.7463   32.0386 H   0  0  0  0  0  0  0  0  0  0  0  0
    2.9012   -3.9205   30.5337 H   0  0  0  0  0  0  0  0  0  0  0  0
    1.2959   -2.2651   29.7998 H   0  0  0  0  0  0  0  0  0  0  0  0
    1.6708   -2.0287   31.5043 H   0  0  0  0  0  0  0  0  0  0  0  0
   -0.4741   -3.5304   31.7631 H   0  0  0  0  0  0  0  0  0  0  0  0
    1.2642    0.5536   31.1185 H   0  0  0  0  0  0  0  0  0  0  0  0
   -1.7551    1.7744   27.9978 H   0  0  0  0  0  0  0  0  0  0  0  0
    1.8489   -5.9704   29.7553 H   0  0  0  0  0  0  0  0  0  0  0  0
    1.2689   -4.6086   28.8222 H   0  0  0  0  0  0  0  0  0  0  0  0
   -0.6930   -4.5610   29.9664 H   0  0  0  0  0  0  0  0  0  0  0  0
    0.4542   -7.7607   31.3535 H   0  0  0  0  0  0  0  0  0  0  0  0
   -2.3208   -7.3081   31.5061 H   0  0  0  0  0  0  0  0  0  0  0  0
   -1.5488   -6.9815   33.5492 H   0  0  0  0  0  0  0  0  0  0  0  0
   -0.3669   -8.2476   33.6360 H   0  0  0  0  0  0  0  0  0  0  0  0
    1.4618   -6.7698   33.6763 H   0  0  0  0  0  0  0  0  0  0  0  0
    1.0930   -5.2434   35.4888 H   0  0  0  0  0  0  0  0  0  0  0  0
   -0.6016   -4.9932   35.0664 H   0  0  0  0  0  0  0  0  0  0  0  0
   -0.0679   -6.5441   35.7324 H   0  0  0  0  0  0  0  0  0  0  0  0
    4.5235   -4.8712   32.7367 H   0  0  0  0  0  0  0  0  0  0  0  0
    5.7910   -3.5532   34.3539 H   0  0  0  0  0  0  0  0  0  0  0  0
  1  2  1  0
  2  3  1  0
  3  4  2  0
  3  5  1  0
  5  6  1  0
  6  7  2  0
  7  8  1  0
  8  9  2  0
  9 10  1  0
 10 11  1  0
 11 12  1  0
 12 13  1  0
 13 14  1  0
 14 15  2  0
 14 16  2  0
 14 17  1  0
 17 18  2  0
 18 19  1  0
 19 20  1  0
 20 21  2  0
 11 22  1  0
 22 23  1  0
 23 24  1  0
 24 25  1  0
 25 26  1  0
 25 27  1  0
 27 28  1  0
 28 29  1  0
 28 30  1  0
  9 31  1  0
 31 32  2  0
 32  6  1  0
 30 10  1  0
 21 17  1  0
 30 24  1  0
  1 33  1  0
  1 34  1  0
  1 35  1  0
  2 36  1  0
  5 37  1  0
  5 38  1  0
  7 39  1  0
  8 40  1  0
 10 41  1  0
 11 42  1  0
 12 43  1  0
 12 44  1  0
 13 45  1  0
 18 46  1  0
 20 47  1  0
 22 48  1  0
 22 49  1  0
 23 50  1  0
 25 51  1  0
 26 52  1  0
 27 53  1  0
 27 54  1  0
 28 55  1  0
 29 56  1  0
 29 57  1  0
 29 58  1  0
 31 59  1  0
 32 60  1  0
M  END
>  <Energy>  (1049) 
42.474481027217614

>  <compound_id>  (1049) 
165

>  <target_id>  (1049) 
1

>  <reference_id>  (1049) 
154

>  <inspiration_ids>  (1049) 
[195, 154]

>  <energy_score>  (1049) 
-134.5456417313004

>  <distance_score>  (1049) 
5.819346968273001

>  <path>  (1049) 
/opt/xchem-fragalysis-2/maxwin/BulkDock/SCRATCH/505736/C165-P154/C165-P154.minimised.mol

>  <scratch_subdir>  (1049) 
/opt/xchem-fragalysis-2/maxwin/BulkDock/SCRATCH/505736/C165-P154

>  <fragmenstein_runtime>  (1049) 
57.49245071411133

>  <fragmenstein_outcome>  (1049) 
too moved

>  <fragmenstein_mode>  (1049) 
expansion

>  <fragmenstein_error>  (1049) 


$$$$
C3066-P195
     RDKit          3D

 37 39  0  0  0  0  0  0  0  0999 V2000
   -0.4019   -5.7667   35.0193 C   0  0  0  0  0  0  0  0  0  0  0  0
   -0.4158   -6.1798   33.5773 C   0  0  0  0  0  0  0  0  0  0  0  0
   -1.0530   -7.3630   33.1995 C   0  0  0  0  0  0  0  0  0  0  0  0
   -1.0296   -7.7331   31.8667 C   0  0  0  0  0  0  0  0  0  0  0  0
   -1.7634   -8.7824   31.4109 O   0  0  0  0  0  0  0  0  0  0  0  0
   -0.3367   -7.0934   30.9163 N   0  0  0  0  0  0  0  0  0  0  0  0
    0.2718   -5.9547   31.2929 C   0  0  0  0  0  0  0  0  0  0  0  0
    0.1700   -5.4041   32.5725 C   0  0  0  0  0  0  0  0  0  0  0  0
    0.7196   -4.0196   32.7848 C   0  0  0  0  0  0  0  0  0  0  0  0
    0.5269   -3.0679   31.5501 C   0  0  0  0  0  0  0  0  0  0  0  0
    1.6822   -2.0441   31.5861 C   0  0  0  0  0  0  0  0  0  0  0  0
   -1.0764   -2.1741   31.7387 S   0  0  0  0  0  0  0  0  0  0  0  0
   -0.9898   -1.2409   32.8470 O   0  0  0  0  0  0  0  0  0  0  0  0
   -2.1932   -3.0926   31.6107 O   0  0  0  0  0  0  0  0  0  0  0  0
   -1.1586   -1.1385   30.3258 C   0  0  0  0  0  0  0  0  0  0  0  0
   -0.7192    0.1710   30.3024 C   0  0  0  0  0  0  0  0  0  0  0  0
   -0.8702    0.8092   28.7151 S   0  0  0  0  0  0  0  0  0  0  0  0
   -1.5436   -0.6787   28.1982 C   0  0  0  0  0  0  0  0  0  0  0  0
   -1.6156   -1.6217   29.1113 N   0  0  0  0  0  0  0  0  0  0  0  0
    0.5325   -3.8017   30.1767 C   0  0  0  0  0  0  0  0  0  0  0  0
    1.0854   -5.2101   30.2750 C   0  0  0  0  0  0  0  0  0  0  0  0
   -0.7732   -6.5667   35.6690 H   0  0  0  0  0  0  0  0  0  0  0  0
   -1.0345   -4.8880   35.1731 H   0  0  0  0  0  0  0  0  0  0  0  0
    0.6199   -5.5370   35.3385 H   0  0  0  0  0  0  0  0  0  0  0  0
   -1.5706   -7.9691   33.9342 H   0  0  0  0  0  0  0  0  0  0  0  0
   -2.4030   -9.0315   32.1039 H   0  0  0  0  0  0  0  0  0  0  0  0
    1.7894   -4.1439   33.0011 H   0  0  0  0  0  0  0  0  0  0  0  0
    0.2767   -3.5563   33.6732 H   0  0  0  0  0  0  0  0  0  0  0  0
    1.6795   -1.4704   32.5192 H   0  0  0  0  0  0  0  0  0  0  0  0
    1.6273   -1.3304   30.7592 H   0  0  0  0  0  0  0  0  0  0  0  0
    2.6520   -2.5489   31.5075 H   0  0  0  0  0  0  0  0  0  0  0  0
   -0.3107    0.7611   31.1105 H   0  0  0  0  0  0  0  0  0  0  0  0
   -1.8835   -0.8344   27.1815 H   0  0  0  0  0  0  0  0  0  0  0  0
   -0.4831   -3.8831   29.7708 H   0  0  0  0  0  0  0  0  0  0  0  0
    1.1051   -3.2358   29.4316 H   0  0  0  0  0  0  0  0  0  0  0  0
    2.1384   -5.2000   30.5814 H   0  0  0  0  0  0  0  0  0  0  0  0
    1.0453   -5.7090   29.3064 H   0  0  0  0  0  0  0  0  0  0  0  0
  1  2  1  0
  2  3  2  0
  3  4  1  0
  4  5  1  0
  4  6  2  0
  6  7  1  0
  7  8  2  0
  8  9  1  0
  9 10  1  0
 10 11  1  0
 10 12  1  0
 12 13  2  0
 12 14  2  0
 12 15  1  0
 15 16  2  0
 16 17  1  0
 17 18  1  0
 18 19  2  0
 10 20  1  0
 20 21  1  0
  8  2  1  0
 19 15  1  0
 21  7  1  0
  1 22  1  0
  1 23  1  0
  1 24  1  0
  3 25  1  0
  5 26  1  0
  9 27  1  0
  9 28  1  0
 11 29  1  0
 11 30  1  0
 11 31  1  0
 16 32  1  0
 18 33  1  0
 20 34  1  0
 20 35  1  0
 21 36  1  0
 21 37  1  0
M  END
>  <Energy>  (1050) 
62.091973534215576

>  <compound_id>  (1050) 
3066

>  <target_id>  (1050) 
1

>  <reference_id>  (1050) 
195

>  <inspiration_ids>  (1050) 
[195, 164]

>  <energy_score>  (1050) 
-89.28008671890976

>  <distance_score>  (1050) 
0.891944857468176

>  <path>  (1050) 
/opt/xchem-fragalysis-2/maxwin/BulkDock/SCRATCH/505736/C3066-P195/C3066-P195.minimised.mol

>  <scratch_subdir>  (1050) 
/opt/xchem-fragalysis-2/maxwin/BulkDock/SCRATCH/505736/C3066-P195

>  <fragmenstein_runtime>  (1050) 
1.9210374355316162

>  <fragmenstein_outcome>  (1050) 
acceptable

>  <fragmenstein_mode>  (1050) 
expansion

>  <fragmenstein_error>  (1050) 


$$$$
C3066-P164
     RDKit          3D

 37 39  0  0  0  0  0  0  0  0999 V2000
   -0.4056   -5.7946   35.0899 C   0  0  0  0  0  0  0  0  0  0  0  0
   -0.4400   -6.2041   33.6469 C   0  0  0  0  0  0  0  0  0  0  0  0
   -1.0932   -7.3806   33.2710 C   0  0  0  0  0  0  0  0  0  0  0  0
   -1.0760   -7.7491   31.9377 C   0  0  0  0  0  0  0  0  0  0  0  0
   -1.8156   -8.7958   31.4834 O   0  0  0  0  0  0  0  0  0  0  0  0
   -0.3758   -7.1165   30.9883 N   0  0  0  0  0  0  0  0  0  0  0  0
    0.2528   -5.9880   31.3645 C   0  0  0  0  0  0  0  0  0  0  0  0
    0.1571   -5.4352   32.6425 C   0  0  0  0  0  0  0  0  0  0  0  0
    0.7313   -4.0598   32.8544 C   0  0  0  0  0  0  0  0  0  0  0  0
    0.5667   -3.1058   31.6166 C   0  0  0  0  0  0  0  0  0  0  0  0
    1.7376   -2.1000   31.6624 C   0  0  0  0  0  0  0  0  0  0  0  0
   -1.0216   -2.1818   31.7866 S   0  0  0  0  0  0  0  0  0  0  0  0
   -0.9456   -1.2807   32.9221 O   0  0  0  0  0  0  0  0  0  0  0  0
   -2.1556   -3.0692   31.6057 O   0  0  0  0  0  0  0  0  0  0  0  0
   -1.0385   -1.1054   30.4013 C   0  0  0  0  0  0  0  0  0  0  0  0
   -0.6846    0.2289   30.4590 C   0  0  0  0  0  0  0  0  0  0  0  0
   -0.7228    0.9129   28.8847 S   0  0  0  0  0  0  0  0  0  0  0  0
   -1.2515   -0.5933   28.2622 C   0  0  0  0  0  0  0  0  0  0  0  0
   -1.3392   -1.5739   29.1329 N   0  0  0  0  0  0  0  0  0  0  0  0
    0.5736   -3.8424   30.2450 C   0  0  0  0  0  0  0  0  0  0  0  0
    1.0933   -5.2623   30.3542 C   0  0  0  0  0  0  0  0  0  0  0  0
   -0.9672   -4.8692   35.2441 H   0  0  0  0  0  0  0  0  0  0  0  0
    0.6294   -5.6468   35.4153 H   0  0  0  0  0  0  0  0  0  0  0  0
   -0.8449   -6.5630   35.7353 H   0  0  0  0  0  0  0  0  0  0  0  0
   -1.6177   -7.9815   34.0052 H   0  0  0  0  0  0  0  0  0  0  0  0
   -2.4471   -9.0533   32.1777 H   0  0  0  0  0  0  0  0  0  0  0  0
    1.7971   -4.2036   33.0785 H   0  0  0  0  0  0  0  0  0  0  0  0
    0.2912   -3.5862   33.7385 H   0  0  0  0  0  0  0  0  0  0  0  0
    1.7363   -1.5276   32.5964 H   0  0  0  0  0  0  0  0  0  0  0  0
    1.6988   -1.3837   30.8365 H   0  0  0  0  0  0  0  0  0  0  0  0
    2.7001   -2.6194   31.5903 H   0  0  0  0  0  0  0  0  0  0  0  0
   -0.3921    0.8119   31.3206 H   0  0  0  0  0  0  0  0  0  0  0  0
   -1.4954   -0.7277   27.2161 H   0  0  0  0  0  0  0  0  0  0  0  0
   -0.4377   -3.9022   29.8252 H   0  0  0  0  0  0  0  0  0  0  0  0
    1.1696   -3.2919   29.5069 H   0  0  0  0  0  0  0  0  0  0  0  0
    2.1425   -5.2739   30.6735 H   0  0  0  0  0  0  0  0  0  0  0  0
    1.0570   -5.7615   29.3868 H   0  0  0  0  0  0  0  0  0  0  0  0
  1  2  1  0
  2  3  2  0
  3  4  1  0
  4  5  1  0
  4  6  2  0
  6  7  1  0
  7  8  2  0
  8  9  1  0
  9 10  1  0
 10 11  1  0
 10 12  1  0
 12 13  2  0
 12 14  2  0
 12 15  1  0
 15 16  2  0
 16 17  1  0
 17 18  1  0
 18 19  2  0
 10 20  1  0
 20 21  1  0
  8  2  1  0
 19 15  1  0
 21  7  1  0
  1 22  1  0
  1 23  1  0
  1 24  1  0
  3 25  1  0
  5 26  1  0
  9 27  1  0
  9 28  1  0
 11 29  1  0
 11 30  1  0
 11 31  1  0
 16 32  1  0
 18 33  1  0
 20 34  1  0
 20 35  1  0
 21 36  1  0
 21 37  1  0
M  END
>  <Energy>  (1051) 
61.718510788414939

>  <compound_id>  (1051) 
3066

>  <target_id>  (1051) 
1

>  <reference_id>  (1051) 
164

>  <inspiration_ids>  (1051) 
[195, 164]

>  <energy_score>  (1051) 
-89.65354946470998

>  <distance_score>  (1051) 
0.7631189987723048

>  <path>  (1051) 
/opt/xchem-fragalysis-2/maxwin/BulkDock/SCRATCH/505736/C3066-P164/C3066-P164.minimised.mol

>  <scratch_subdir>  (1051) 
/opt/xchem-fragalysis-2/maxwin/BulkDock/SCRATCH/505736/C3066-P164

>  <fragmenstein_runtime>  (1051) 
1.8038430213928223

>  <fragmenstein_outcome>  (1051) 
acceptable

>  <fragmenstein_mode>  (1051) 
expansion

>  <fragmenstein_error>  (1051) 


$$$$
C172-P195
     RDKit          3D

 57 60  0  0  0  0  0  0  0  0999 V2000
    6.6344   -7.7167   39.2691 C   0  0  0  0  0  0  0  0  0  0  0  0
    5.5636   -7.4201   38.3636 N   0  0  0  0  0  0  0  0  0  0  0  0
    4.1702   -8.0549   38.2223 C   0  0  0  0  0  0  0  0  0  0  0  0
    3.6992   -8.9690   38.7665 O   0  0  0  0  0  0  0  0  0  0  0  0
    3.3916   -7.3522   37.1692 C   0  0  0  0  0  0  0  0  0  0  0  0
    3.8782   -7.2908   35.8608 C   0  0  0  0  0  0  0  0  0  0  0  0
    3.1551   -6.6274   34.8590 C   0  0  0  0  0  0  0  0  0  0  0  0
    1.9286   -6.0284   35.1304 C   0  0  0  0  0  0  0  0  0  0  0  0
    1.0108   -5.5221   33.9869 C   0  0  0  0  0  0  0  0  0  0  0  0
    1.4895   -4.4405   32.9233 C   0  0  0  0  0  0  0  0  0  0  0  0
    0.2905   -3.4717   32.7250 C   0  0  0  0  0  0  0  0  0  0  0  0
    0.2341   -2.7078   31.4606 N   0  0  0  0  0  0  0  0  0  0  0  0
   -1.2123   -1.7761   31.4222 S   0  0  0  0  0  0  0  0  0  0  0  0
   -1.1777   -0.8386   32.5241 O   0  0  0  0  0  0  0  0  0  0  0  0
   -2.2996   -2.7189   31.2557 O   0  0  0  0  0  0  0  0  0  0  0  0
   -1.1606   -0.7999   29.9878 C   0  0  0  0  0  0  0  0  0  0  0  0
   -0.5083    0.4154   29.9263 C   0  0  0  0  0  0  0  0  0  0  0  0
   -0.6596    1.0731   28.3509 S   0  0  0  0  0  0  0  0  0  0  0  0
   -1.5436   -0.3161   27.8746 C   0  0  0  0  0  0  0  0  0  0  0  0
   -1.7199   -1.2339   28.7983 N   0  0  0  0  0  0  0  0  0  0  0  0
    1.9231   -5.1174   31.6065 C   0  0  0  0  0  0  0  0  0  0  0  0
    0.9339   -6.0481   31.0301 N   0  0  0  0  0  0  0  0  0  0  0  0
   -0.0830   -6.2687   32.0020 N   0  0  0  0  0  0  0  0  0  0  0  0
   -1.1002   -7.2397   31.6176 C   0  0  0  0  0  0  0  0  0  0  0  0
   -0.8386   -7.9676   30.4324 O   0  0  0  0  0  0  0  0  0  0  0  0
   -1.2010   -8.1720   32.7795 C   0  0  0  0  0  0  0  0  0  0  0  0
   -0.4848   -7.5019   33.9333 C   0  0  0  0  0  0  0  0  0  0  0  0
   -1.4632   -6.7834   34.8350 C   0  0  0  0  0  0  0  0  0  0  0  0
    0.5050   -6.6884   33.2347 N   0  0  0  0  0  0  0  0  0  0  0  0
    1.4743   -6.0867   36.4806 C   0  0  0  0  0  0  0  0  0  0  0  0
    2.1767   -6.7603   37.4888 C   0  0  0  0  0  0  0  0  0  0  0  0
    6.8577   -6.8188   39.8492 H   0  0  0  0  0  0  0  0  0  0  0  0
    6.3378   -8.5309   39.9338 H   0  0  0  0  0  0  0  0  0  0  0  0
    7.5116   -8.0064   38.6866 H   0  0  0  0  0  0  0  0  0  0  0  0
    5.6710   -6.6835   37.6759 H   0  0  0  0  0  0  0  0  0  0  0  0
    4.8212   -7.7708   35.6087 H   0  0  0  0  0  0  0  0  0  0  0  0
    3.5423   -6.5904   33.8502 H   0  0  0  0  0  0  0  0  0  0  0  0
    0.2034   -5.0166   34.5300 H   0  0  0  0  0  0  0  0  0  0  0  0
    2.3394   -3.8749   33.3246 H   0  0  0  0  0  0  0  0  0  0  0  0
   -0.6624   -4.0031   32.8327 H   0  0  0  0  0  0  0  0  0  0  0  0
    0.3320   -2.7547   33.5561 H   0  0  0  0  0  0  0  0  0  0  0  0
    0.1770   -3.3226   30.6450 H   0  0  0  0  0  0  0  0  0  0  0  0
    0.0207    0.9374   30.7113 H   0  0  0  0  0  0  0  0  0  0  0  0
   -1.9336   -0.4287   26.8710 H   0  0  0  0  0  0  0  0  0  0  0  0
    2.2040   -4.3712   30.8547 H   0  0  0  0  0  0  0  0  0  0  0  0
    2.8337   -5.6852   31.8037 H   0  0  0  0  0  0  0  0  0  0  0  0
    0.5264   -5.6576   30.1765 H   0  0  0  0  0  0  0  0  0  0  0  0
   -2.0327   -6.7211   31.4828 H   0  0  0  0  0  0  0  0  0  0  0  0
    0.1264   -8.1169   30.4935 H   0  0  0  0  0  0  0  0  0  0  0  0
   -0.6955   -9.0771   32.4798 H   0  0  0  0  0  0  0  0  0  0  0  0
   -2.2334   -8.4361   33.0022 H   0  0  0  0  0  0  0  0  0  0  0  0
    0.0173   -8.2316   34.5672 H   0  0  0  0  0  0  0  0  0  0  0  0
   -2.3316   -7.4191   35.0204 H   0  0  0  0  0  0  0  0  0  0  0  0
   -1.7892   -5.8588   34.3691 H   0  0  0  0  0  0  0  0  0  0  0  0
   -1.0547   -6.5486   35.8148 H   0  0  0  0  0  0  0  0  0  0  0  0
    0.5338   -5.6138   36.7573 H   0  0  0  0  0  0  0  0  0  0  0  0
    1.7785   -6.8166   38.4984 H   0  0  0  0  0  0  0  0  0  0  0  0
  1  2  1  0
  2  3  1  0
  3  4  2  0
  3  5  1  0
  5  6  2  0
  6  7  1  0
  7  8  2  0
  8  9  1  0
  9 10  1  0
 10 11  1  0
 11 12  1  0
 12 13  1  0
 13 14  2  0
 13 15  2  0
 13 16  1  0
 16 17  2  0
 17 18  1  0
 18 19  1  0
 19 20  2  0
 10 21  1  0
 21 22  1  0
 22 23  1  0
 23 24  1  0
 24 25  1  0
 24 26  1  0
 26 27  1  0
 27 28  1  0
 27 29  1  0
  8 30  1  0
 30 31  2  0
 31  5  1  0
 29  9  1  0
 20 16  1  0
 29 23  1  0
  1 32  1  0
  1 33  1  0
  1 34  1  0
  2 35  1  0
  6 36  1  0
  7 37  1  0
  9 38  1  0
 10 39  1  0
 11 40  1  0
 11 41  1  0
 12 42  1  0
 17 43  1  0
 19 44  1  0
 21 45  1  0
 21 46  1  0
 22 47  1  0
 24 48  1  0
 25 49  1  0
 26 50  1  0
 26 51  1  0
 27 52  1  0
 28 53  1  0
 28 54  1  0
 28 55  1  0
 30 56  1  0
 31 57  1  0
M  END
>  <Energy>  (1052) 
62.736350328100805

>  <compound_id>  (1052) 
172

>  <target_id>  (1052) 
1

>  <reference_id>  (1052) 
195

>  <inspiration_ids>  (1052) 
[195, 166]

>  <energy_score>  (1052) 
-70.26004834390012

>  <distance_score>  (1052) 
2.7363898191204368

>  <path>  (1052) 
/opt/xchem-fragalysis-2/maxwin/BulkDock/SCRATCH/505736/C172-P195/C172-P195.minimised.mol

>  <scratch_subdir>  (1052) 
/opt/xchem-fragalysis-2/maxwin/BulkDock/SCRATCH/505736/C172-P195

>  <fragmenstein_runtime>  (1052) 
8.94497275352478

>  <fragmenstein_outcome>  (1052) 
too moved

>  <fragmenstein_mode>  (1052) 
expansion

>  <fragmenstein_error>  (1052) 


$$$$
C172-P166
     RDKit          3D

 57 60  0  0  0  0  0  0  0  0999 V2000
    5.0298   -4.4941   40.3707 C   0  0  0  0  0  0  0  0  0  0  0  0
    4.2985   -4.8111   39.1791 N   0  0  0  0  0  0  0  0  0  0  0  0
    3.2329   -5.8910   38.9172 C   0  0  0  0  0  0  0  0  0  0  0  0
    2.8365   -6.7427   39.6053 O   0  0  0  0  0  0  0  0  0  0  0  0
    2.6745   -5.7723   37.5370 C   0  0  0  0  0  0  0  0  0  0  0  0
    2.3082   -4.5434   36.9883 C   0  0  0  0  0  0  0  0  0  0  0  0
    1.7797   -4.4443   35.6867 C   0  0  0  0  0  0  0  0  0  0  0  0
    1.5926   -5.5694   34.8886 C   0  0  0  0  0  0  0  0  0  0  0  0
    0.7686   -5.4256   33.5457 C   0  0  0  0  0  0  0  0  0  0  0  0
    1.3439   -4.4866   32.4144 C   0  0  0  0  0  0  0  0  0  0  0  0
    0.2862   -3.6352   31.6552 C   0  0  0  0  0  0  0  0  0  0  0  0
   -0.1456   -2.4882   32.4505 N   0  0  0  0  0  0  0  0  0  0  0  0
   -1.5930   -1.7699   31.9315 S   0  0  0  0  0  0  0  0  0  0  0  0
   -1.8358   -0.6682   32.8369 O   0  0  0  0  0  0  0  0  0  0  0  0
   -2.5715   -2.8069   31.6779 O   0  0  0  0  0  0  0  0  0  0  0  0
   -1.3011   -0.9862   30.3933 C   0  0  0  0  0  0  0  0  0  0  0  0
   -0.7559    0.2782   30.2823 C   0  0  0  0  0  0  0  0  0  0  0  0
   -0.6806    0.7375   28.6311 S   0  0  0  0  0  0  0  0  0  0  0  0
   -1.3495   -0.7801   28.1961 C   0  0  0  0  0  0  0  0  0  0  0  0
   -1.5760   -1.6139   29.1878 N   0  0  0  0  0  0  0  0  0  0  0  0
    1.9360   -5.3731   31.3409 C   0  0  0  0  0  0  0  0  0  0  0  0
    0.8426   -6.1388   30.7387 N   0  0  0  0  0  0  0  0  0  0  0  0
    0.2401   -6.9932   31.6981 N   0  0  0  0  0  0  0  0  0  0  0  0
   -1.1885   -7.1733   31.5315 C   0  0  0  0  0  0  0  0  0  0  0  0
   -1.5090   -7.8165   30.3254 O   0  0  0  0  0  0  0  0  0  0  0  0
   -1.5041   -8.0526   32.7039 C   0  0  0  0  0  0  0  0  0  0  0  0
   -0.6159   -7.4934   33.8015 C   0  0  0  0  0  0  0  0  0  0  0  0
   -1.4190   -6.7341   34.8440 C   0  0  0  0  0  0  0  0  0  0  0  0
    0.4621   -6.7825   33.0801 N   0  0  0  0  0  0  0  0  0  0  0  0
    1.9742   -6.8119   35.4834 C   0  0  0  0  0  0  0  0  0  0  0  0
    2.4737   -6.9226   36.7912 C   0  0  0  0  0  0  0  0  0  0  0  0
    6.0802   -4.3511   40.1093 H   0  0  0  0  0  0  0  0  0  0  0  0
    4.6239   -3.5707   40.7900 H   0  0  0  0  0  0  0  0  0  0  0  0
    4.9220   -5.3067   41.0923 H   0  0  0  0  0  0  0  0  0  0  0  0
    4.3382   -4.1781   38.3914 H   0  0  0  0  0  0  0  0  0  0  0  0
    2.3784   -3.6354   37.5839 H   0  0  0  0  0  0  0  0  0  0  0  0
    1.4533   -3.4666   35.3344 H   0  0  0  0  0  0  0  0  0  0  0  0
   -0.1498   -4.9125   33.8496 H   0  0  0  0  0  0  0  0  0  0  0  0
    2.1209   -3.8311   32.8254 H   0  0  0  0  0  0  0  0  0  0  0  0
    0.7170   -3.2407   30.7262 H   0  0  0  0  0  0  0  0  0  0  0  0
   -0.5865   -4.2408   31.4014 H   0  0  0  0  0  0  0  0  0  0  0  0
    0.5649   -1.7804   32.6298 H   0  0  0  0  0  0  0  0  0  0  0  0
   -0.4401    0.9486   31.0687 H   0  0  0  0  0  0  0  0  0  0  0  0
   -1.5646   -1.0363   27.1663 H   0  0  0  0  0  0  0  0  0  0  0  0
    2.4338   -4.7793   30.5659 H   0  0  0  0  0  0  0  0  0  0  0  0
    2.6873   -6.0006   31.7983 H   0  0  0  0  0  0  0  0  0  0  0  0
    1.2105   -6.6957   29.9662 H   0  0  0  0  0  0  0  0  0  0  0  0
   -1.7077   -6.2180   31.6067 H   0  0  0  0  0  0  0  0  0  0  0  0
   -1.1024   -7.2336   29.6598 H   0  0  0  0  0  0  0  0  0  0  0  0
   -1.2341   -9.0831   32.4619 H   0  0  0  0  0  0  0  0  0  0  0  0
   -2.5644   -8.0700   32.9443 H   0  0  0  0  0  0  0  0  0  0  0  0
   -0.1861   -8.3318   34.3459 H   0  0  0  0  0  0  0  0  0  0  0  0
   -2.2209   -7.3827   35.1984 H   0  0  0  0  0  0  0  0  0  0  0  0
   -0.8338   -6.4508   35.7213 H   0  0  0  0  0  0  0  0  0  0  0  0
   -1.8788   -5.8419   34.4237 H   0  0  0  0  0  0  0  0  0  0  0  0
    1.8353   -7.7424   34.9462 H   0  0  0  0  0  0  0  0  0  0  0  0
    2.7049   -7.9002   37.2083 H   0  0  0  0  0  0  0  0  0  0  0  0
  1  2  1  0
  2  3  1  0
  3  4  2  0
  3  5  1  0
  5  6  2  0
  6  7  1  0
  7  8  2  0
  8  9  1  0
  9 10  1  0
 10 11  1  0
 11 12  1  0
 12 13  1  0
 13 14  2  0
 13 15  2  0
 13 16  1  0
 16 17  2  0
 17 18  1  0
 18 19  1  0
 19 20  2  0
 10 21  1  0
 21 22  1  0
 22 23  1  0
 23 24  1  0
 24 25  1  0
 24 26  1  0
 26 27  1  0
 27 28  1  0
 27 29  1  0
  8 30  1  0
 30 31  2  0
 31  5  1  0
 29  9  1  0
 20 16  1  0
 29 23  1  0
  1 32  1  0
  1 33  1  0
  1 34  1  0
  2 35  1  0
  6 36  1  0
  7 37  1  0
  9 38  1  0
 10 39  1  0
 11 40  1  0
 11 41  1  0
 12 42  1  0
 17 43  1  0
 19 44  1  0
 21 45  1  0
 21 46  1  0
 22 47  1  0
 24 48  1  0
 25 49  1  0
 26 50  1  0
 26 51  1  0
 27 52  1  0
 28 53  1  0
 28 54  1  0
 28 55  1  0
 30 56  1  0
 31 57  1  0
M  END
>  <Energy>  (1053) 
65.47837009474793

>  <compound_id>  (1053) 
172

>  <target_id>  (1053) 
1

>  <reference_id>  (1053) 
166

>  <inspiration_ids>  (1053) 
[195, 166]

>  <energy_score>  (1053) 
-67.51802857725232

>  <distance_score>  (1053) 
2.8881453848898406

>  <path>  (1053) 
/opt/xchem-fragalysis-2/maxwin/BulkDock/SCRATCH/505736/C172-P166/C172-P166.minimised.mol

>  <scratch_subdir>  (1053) 
/opt/xchem-fragalysis-2/maxwin/BulkDock/SCRATCH/505736/C172-P166

>  <fragmenstein_runtime>  (1053) 
8.760114908218384

>  <fragmenstein_outcome>  (1053) 
too moved

>  <fragmenstein_mode>  (1053) 
expansion

>  <fragmenstein_error>  (1053) 


$$$$
C173-P195
     RDKit          3D

 57 59  0  0  0  0  0  0  0  0999 V2000
   -0.6560   -6.5246   35.1874 C   0  0  0  0  0  0  0  0  0  0  0  0
    0.0248   -6.7396   33.8309 C   0  0  0  0  0  0  0  0  0  0  0  0
   -0.8970   -7.6176   32.9958 C   0  0  0  0  0  0  0  0  0  0  0  0
   -0.8972   -7.2366   31.5427 C   0  0  0  0  0  0  0  0  0  0  0  0
   -1.3450   -8.3354   30.7774 O   0  0  0  0  0  0  0  0  0  0  0  0
    0.4113   -6.9076   31.0610 N   0  0  0  0  0  0  0  0  0  0  0  0
    1.0782   -5.8459   31.8250 C   0  0  0  0  0  0  0  0  0  0  0  0
    1.4043   -4.6775   30.8530 C   0  0  0  0  0  0  0  0  0  0  0  0
    0.2274   -3.7858   30.4487 C   0  0  0  0  0  0  0  0  0  0  0  0
    0.0866   -2.7205   31.4539 N   0  0  0  0  0  0  0  0  0  0  0  0
   -1.3641   -1.8709   31.4919 S   0  0  0  0  0  0  0  0  0  0  0  0
   -1.2576   -0.9241   32.5821 O   0  0  0  0  0  0  0  0  0  0  0  0
   -2.4689   -2.7954   31.3721 O   0  0  0  0  0  0  0  0  0  0  0  0
   -1.3517   -0.8758   30.0566 C   0  0  0  0  0  0  0  0  0  0  0  0
   -0.7380    0.3612   30.0094 C   0  0  0  0  0  0  0  0  0  0  0  0
   -0.8176    0.9909   28.4173 S   0  0  0  0  0  0  0  0  0  0  0  0
   -1.6247   -0.4349   27.9160 C   0  0  0  0  0  0  0  0  0  0  0  0
   -1.8095   -1.3505   28.8404 N   0  0  0  0  0  0  0  0  0  0  0  0
    0.3581   -5.5219   33.0631 N   0  0  0  0  0  0  0  0  0  0  0  0
    0.9984   -4.4758   33.8903 C   0  0  0  0  0  0  0  0  0  0  0  0
    2.2026   -4.9608   34.7335 C   0  0  0  0  0  0  0  0  0  0  0  0
    3.1658   -5.4260   34.2582 O   0  0  0  0  0  0  0  0  0  0  0  0
    1.8639   -4.6421   36.2210 N   0  0  0  0  0  0  0  0  0  0  0  0
    2.5964   -4.9164   37.4204 C   0  0  0  0  0  0  0  0  0  0  0  0
    2.6022   -6.3728   37.8090 C   0  0  0  0  0  0  0  0  0  0  0  0
    1.8157   -6.8605   38.8638 C   0  0  0  0  0  0  0  0  0  0  0  0
    2.0209   -8.1513   39.3500 C   0  0  0  0  0  0  0  0  0  0  0  0
    3.0070   -8.9551   38.7829 C   0  0  0  0  0  0  0  0  0  0  0  0
    3.7241   -8.5128   37.6733 C   0  0  0  0  0  0  0  0  0  0  0  0
    3.5108   -7.2344   37.1800 C   0  0  0  0  0  0  0  0  0  0  0  0
   -1.4620   -5.7901   35.1193 H   0  0  0  0  0  0  0  0  0  0  0  0
    0.0346   -6.2014   35.9612 H   0  0  0  0  0  0  0  0  0  0  0  0
   -1.0918   -7.4614   35.5556 H   0  0  0  0  0  0  0  0  0  0  0  0
    0.9471   -7.3047   34.0259 H   0  0  0  0  0  0  0  0  0  0  0  0
   -0.5887   -8.6508   33.0926 H   0  0  0  0  0  0  0  0  0  0  0  0
   -1.9250   -7.5970   33.3623 H   0  0  0  0  0  0  0  0  0  0  0  0
   -1.5801   -6.4046   31.3851 H   0  0  0  0  0  0  0  0  0  0  0  0
   -0.5936   -8.9599   30.8106 H   0  0  0  0  0  0  0  0  0  0  0  0
    0.2984   -6.6375   30.0888 H   0  0  0  0  0  0  0  0  0  0  0  0
    2.0515   -6.2664   32.1016 H   0  0  0  0  0  0  0  0  0  0  0  0
    1.8351   -5.1044   29.9357 H   0  0  0  0  0  0  0  0  0  0  0  0
    2.2124   -4.0675   31.2779 H   0  0  0  0  0  0  0  0  0  0  0  0
   -0.6887   -4.3696   30.3453 H   0  0  0  0  0  0  0  0  0  0  0  0
    0.4516   -3.3165   29.4845 H   0  0  0  0  0  0  0  0  0  0  0  0
    0.8775   -2.0805   31.5076 H   0  0  0  0  0  0  0  0  0  0  0  0
   -0.2634    0.9104   30.8102 H   0  0  0  0  0  0  0  0  0  0  0  0
   -1.9605   -0.5716   26.8964 H   0  0  0  0  0  0  0  0  0  0  0  0
    0.2205   -4.0258   34.5151 H   0  0  0  0  0  0  0  0  0  0  0  0
    1.3825   -3.6416   33.3006 H   0  0  0  0  0  0  0  0  0  0  0  0
    0.9718   -4.1659   36.2707 H   0  0  0  0  0  0  0  0  0  0  0  0
    2.1637   -4.3057   38.2202 H   0  0  0  0  0  0  0  0  0  0  0  0
    3.6267   -4.5741   37.2703 H   0  0  0  0  0  0  0  0  0  0  0  0
    1.0807   -6.2211   39.3462 H   0  0  0  0  0  0  0  0  0  0  0  0
    1.4279   -8.5219   40.1816 H   0  0  0  0  0  0  0  0  0  0  0  0
    3.1980   -9.9414   39.1934 H   0  0  0  0  0  0  0  0  0  0  0  0
    4.4775   -9.1514   37.2210 H   0  0  0  0  0  0  0  0  0  0  0  0
    4.1144   -6.8780   36.3470 H   0  0  0  0  0  0  0  0  0  0  0  0
  1  2  1  0
  2  3  1  0
  3  4  1  0
  4  5  1  0
  4  6  1  0
  6  7  1  0
  7  8  1  0
  8  9  1  0
  9 10  1  0
 10 11  1  0
 11 12  2  0
 11 13  2  0
 11 14  1  0
 14 15  2  0
 15 16  1  0
 16 17  1  0
 17 18  2  0
  7 19  1  0
 19 20  1  0
 20 21  1  0
 21 22  2  0
 21 23  1  0
 23 24  1  0
 24 25  1  0
 25 26  2  0
 26 27  1  0
 27 28  2  0
 28 29  1  0
 29 30  2  0
 19  2  1  0
 30 25  1  0
 18 14  1  0
  1 31  1  0
  1 32  1  0
  1 33  1  0
  2 34  1  0
  3 35  1  0
  3 36  1  0
  4 37  1  0
  5 38  1  0
  6 39  1  0
  7 40  1  0
  8 41  1  0
  8 42  1  0
  9 43  1  0
  9 44  1  0
 10 45  1  0
 15 46  1  0
 17 47  1  0
 20 48  1  0
 20 49  1  0
 23 50  1  0
 24 51  1  0
 24 52  1  0
 26 53  1  0
 27 54  1  0
 28 55  1  0
 29 56  1  0
 30 57  1  0
M  END
>  <Energy>  (1054) 
-32.978402436260083

>  <compound_id>  (1054) 
173

>  <target_id>  (1054) 
1

>  <reference_id>  (1054) 
195

>  <inspiration_ids>  (1054) 
[195, 167]

>  <energy_score>  (1054) 
-87.17758715163679

>  <distance_score>  (1054) 
1.4168300641924165

>  <path>  (1054) 
/opt/xchem-fragalysis-2/maxwin/BulkDock/SCRATCH/505736/C173-P195/C173-P195.minimised.mol

>  <scratch_subdir>  (1054) 
/opt/xchem-fragalysis-2/maxwin/BulkDock/SCRATCH/505736/C173-P195

>  <fragmenstein_runtime>  (1054) 
11.88490104675293

>  <fragmenstein_outcome>  (1054) 
too moved

>  <fragmenstein_mode>  (1054) 
expansion

>  <fragmenstein_error>  (1054) 


$$$$
C173-P167
     RDKit          3D

 57 59  0  0  0  0  0  0  0  0999 V2000
   -0.4332   -6.7798   35.1738 C   0  0  0  0  0  0  0  0  0  0  0  0
    0.1255   -6.8799   33.7551 C   0  0  0  0  0  0  0  0  0  0  0  0
   -0.8605   -7.6983   32.9287 C   0  0  0  0  0  0  0  0  0  0  0  0
   -0.8324   -7.2991   31.4772 C   0  0  0  0  0  0  0  0  0  0  0  0
   -1.3007   -8.3612   30.6727 O   0  0  0  0  0  0  0  0  0  0  0  0
    0.4677   -6.9343   30.9964 N   0  0  0  0  0  0  0  0  0  0  0  0
    1.1161   -5.8741   31.7840 C   0  0  0  0  0  0  0  0  0  0  0  0
    1.4312   -4.6725   30.8514 C   0  0  0  0  0  0  0  0  0  0  0  0
    0.2517   -3.7820   30.4613 C   0  0  0  0  0  0  0  0  0  0  0  0
    0.0969   -2.7326   31.4796 N   0  0  0  0  0  0  0  0  0  0  0  0
   -1.3639   -1.8992   31.5187 S   0  0  0  0  0  0  0  0  0  0  0  0
   -1.2912   -0.9802   32.6351 O   0  0  0  0  0  0  0  0  0  0  0  0
   -2.4545   -2.8311   31.3428 O   0  0  0  0  0  0  0  0  0  0  0  0
   -1.3560   -0.8663   30.1092 C   0  0  0  0  0  0  0  0  0  0  0  0
   -0.9722    0.4600   30.1404 C   0  0  0  0  0  0  0  0  0  0  0  0
   -1.0109    1.1142   28.5565 S   0  0  0  0  0  0  0  0  0  0  0  0
   -1.5196   -0.4109   27.9594 C   0  0  0  0  0  0  0  0  0  0  0  0
   -1.6024   -1.3785   28.8449 N   0  0  0  0  0  0  0  0  0  0  0  0
    0.4099   -5.6148   33.0429 N   0  0  0  0  0  0  0  0  0  0  0  0
    1.0357   -4.5842   33.9015 C   0  0  0  0  0  0  0  0  0  0  0  0
    2.2881   -5.0641   34.6762 C   0  0  0  0  0  0  0  0  0  0  0  0
    3.2364   -5.4958   34.1435 O   0  0  0  0  0  0  0  0  0  0  0  0
    1.9953   -4.8400   36.1893 N   0  0  0  0  0  0  0  0  0  0  0  0
    2.7658   -5.1872   37.3481 C   0  0  0  0  0  0  0  0  0  0  0  0
    2.5966   -6.6395   37.7170 C   0  0  0  0  0  0  0  0  0  0  0  0
    1.7570   -7.0447   38.7655 C   0  0  0  0  0  0  0  0  0  0  0  0
    1.7095   -8.3848   39.1456 C   0  0  0  0  0  0  0  0  0  0  0  0
    2.4947   -9.3221   38.4797 C   0  0  0  0  0  0  0  0  0  0  0  0
    3.2832   -8.9409   37.3968 C   0  0  0  0  0  0  0  0  0  0  0  0
    3.3267   -7.6082   37.0131 C   0  0  0  0  0  0  0  0  0  0  0  0
   -0.8932   -7.7297   35.4696 H   0  0  0  0  0  0  0  0  0  0  0  0
    0.3425   -6.5969   35.9105 H   0  0  0  0  0  0  0  0  0  0  0  0
   -1.1860   -5.9962   35.2655 H   0  0  0  0  0  0  0  0  0  0  0  0
    1.0576   -7.4547   33.8380 H   0  0  0  0  0  0  0  0  0  0  0  0
   -0.6488   -8.7595   33.0406 H   0  0  0  0  0  0  0  0  0  0  0  0
   -1.8829   -7.5805   33.2977 H   0  0  0  0  0  0  0  0  0  0  0  0
   -1.4884   -6.4525   31.3260 H   0  0  0  0  0  0  0  0  0  0  0  0
   -0.5878   -9.0271   30.7171 H   0  0  0  0  0  0  0  0  0  0  0  0
    0.3439   -6.6374   30.0339 H   0  0  0  0  0  0  0  0  0  0  0  0
    2.0973   -6.2829   32.0402 H   0  0  0  0  0  0  0  0  0  0  0  0
    1.8730   -5.0689   29.9256 H   0  0  0  0  0  0  0  0  0  0  0  0
    2.2298   -4.0666   31.2995 H   0  0  0  0  0  0  0  0  0  0  0  0
   -0.6579   -4.3718   30.3493 H   0  0  0  0  0  0  0  0  0  0  0  0
    0.4741   -3.2980   29.5040 H   0  0  0  0  0  0  0  0  0  0  0  0
    0.8810   -2.0854   31.5473 H   0  0  0  0  0  0  0  0  0  0  0  0
   -0.6798    1.0573   30.9919 H   0  0  0  0  0  0  0  0  0  0  0  0
   -1.7535   -0.5661   26.9142 H   0  0  0  0  0  0  0  0  0  0  0  0
    0.2660   -4.1958   34.5757 H   0  0  0  0  0  0  0  0  0  0  0  0
    1.3626   -3.7081   33.3386 H   0  0  0  0  0  0  0  0  0  0  0  0
    1.0404   -4.5244   36.3063 H   0  0  0  0  0  0  0  0  0  0  0  0
    2.4535   -4.5347   38.1699 H   0  0  0  0  0  0  0  0  0  0  0  0
    3.8201   -4.9796   37.1347 H   0  0  0  0  0  0  0  0  0  0  0  0
    1.1526   -6.3199   39.3035 H   0  0  0  0  0  0  0  0  0  0  0  0
    1.0600   -8.7064   39.9562 H   0  0  0  0  0  0  0  0  0  0  0  0
    2.4664  -10.3582   38.8045 H   0  0  0  0  0  0  0  0  0  0  0  0
    3.8906   -9.6765   36.8793 H   0  0  0  0  0  0  0  0  0  0  0  0
    3.9681   -7.3119   36.1849 H   0  0  0  0  0  0  0  0  0  0  0  0
  1  2  1  0
  2  3  1  0
  3  4  1  0
  4  5  1  0
  4  6  1  0
  6  7  1  0
  7  8  1  0
  8  9  1  0
  9 10  1  0
 10 11  1  0
 11 12  2  0
 11 13  2  0
 11 14  1  0
 14 15  2  0
 15 16  1  0
 16 17  1  0
 17 18  2  0
  7 19  1  0
 19 20  1  0
 20 21  1  0
 21 22  2  0
 21 23  1  0
 23 24  1  0
 24 25  1  0
 25 26  2  0
 26 27  1  0
 27 28  2  0
 28 29  1  0
 29 30  2  0
 19  2  1  0
 30 25  1  0
 18 14  1  0
  1 31  1  0
  1 32  1  0
  1 33  1  0
  2 34  1  0
  3 35  1  0
  3 36  1  0
  4 37  1  0
  5 38  1  0
  6 39  1  0
  7 40  1  0
  8 41  1  0
  8 42  1  0
  9 43  1  0
  9 44  1  0
 10 45  1  0
 15 46  1  0
 17 47  1  0
 20 48  1  0
 20 49  1  0
 23 50  1  0
 24 51  1  0
 24 52  1  0
 26 53  1  0
 27 54  1  0
 28 55  1  0
 29 56  1  0
 30 57  1  0
M  END
>  <Energy>  (1055) 
-35.616998634141027

>  <compound_id>  (1055) 
173

>  <target_id>  (1055) 
1

>  <reference_id>  (1055) 
167

>  <inspiration_ids>  (1055) 
[195, 167]

>  <energy_score>  (1055) 
-89.81618334951719

>  <distance_score>  (1055) 
1.3328803612869253

>  <path>  (1055) 
/opt/xchem-fragalysis-2/maxwin/BulkDock/SCRATCH/505736/C173-P167/C173-P167.minimised.mol

>  <scratch_subdir>  (1055) 
/opt/xchem-fragalysis-2/maxwin/BulkDock/SCRATCH/505736/C173-P167

>  <fragmenstein_runtime>  (1055) 
9.336255311965942

>  <fragmenstein_outcome>  (1055) 
too moved

>  <fragmenstein_mode>  (1055) 
expansion

>  <fragmenstein_error>  (1055) 


$$$$
C3069-P195
     RDKit          3D

 51 54  0  0  0  0  0  0  0  0999 V2000
    1.1890   -3.3514   31.9902 C   0  0  0  0  0  0  0  0  0  0  0  0
    0.1797   -3.8271   30.9238 C   0  0  0  0  0  0  0  0  0  0  0  0
    0.5729   -4.5759   29.6545 C   0  0  0  0  0  0  0  0  0  0  0  0
   -0.3522   -2.5353   30.3309 C   0  0  0  0  0  0  0  0  0  0  0  0
   -0.5404   -1.6002   31.4309 N   0  0  0  0  0  0  0  0  0  0  0  0
   -1.9384   -0.7503   31.3623 S   0  0  0  0  0  0  0  0  0  0  0  0
   -1.8274    0.2741   32.3704 O   0  0  0  0  0  0  0  0  0  0  0  0
   -3.0050   -1.7182   31.3136 O   0  0  0  0  0  0  0  0  0  0  0  0
   -1.7207    0.0145   29.8017 C   0  0  0  0  0  0  0  0  0  0  0  0
   -0.7790    1.0096   29.6055 C   0  0  0  0  0  0  0  0  0  0  0  0
   -0.6344    1.3604   27.9387 S   0  0  0  0  0  0  0  0  0  0  0  0
   -1.6977    0.0649   27.5967 C   0  0  0  0  0  0  0  0  0  0  0  0
   -2.1391   -0.6067   28.6352 N   0  0  0  0  0  0  0  0  0  0  0  0
   -0.9194   -4.6138   31.6368 C   0  0  0  0  0  0  0  0  0  0  0  0
   -0.7954   -6.1616   31.6825 C   0  0  0  0  0  0  0  0  0  0  0  0
   -0.9816   -7.2433   30.9016 C   0  0  0  0  0  0  0  0  0  0  0  0
   -1.2966   -7.5917   29.7254 O   0  0  0  0  0  0  0  0  0  0  0  0
   -0.7954   -8.0574   32.0555 C   0  0  0  0  0  0  0  0  0  0  0  0
   -0.1459   -7.0281   32.6184 C   0  0  0  0  0  0  0  0  0  0  0  0
    0.9070   -6.7538   33.7111 C   0  0  0  0  0  0  0  0  0  0  0  0
    2.1521   -6.1528   33.0919 C   0  0  0  0  0  0  0  0  0  0  0  0
    3.1329   -5.4595   33.6349 N   0  0  0  0  0  0  0  0  0  0  0  0
    3.8253   -4.8225   32.5723 N   0  0  0  0  0  0  0  0  0  0  0  0
    3.2464   -5.1899   31.4387 C   0  0  0  0  0  0  0  0  0  0  0  0
    3.5672   -4.7445   30.0840 C   0  0  0  0  0  0  0  0  0  0  0  0
    3.5638   -5.4316   28.8748 C   0  0  0  0  0  0  0  0  0  0  0  0
    3.7252   -4.5066   27.8092 C   0  0  0  0  0  0  0  0  0  0  0  0
    3.8311   -3.2652   28.3835 C   0  0  0  0  0  0  0  0  0  0  0  0
    3.8130   -3.4295   29.7508 N   0  0  0  0  0  0  0  0  0  0  0  0
    2.2205   -6.0874   31.7118 O   0  0  0  0  0  0  0  0  0  0  0  0
    1.4292   -4.1158   32.6920 H   0  0  0  0  0  0  0  0  0  0  0  0
    0.7836   -2.6492   32.7292 H   0  0  0  0  0  0  0  0  0  0  0  0
    2.0594   -2.8528   31.5689 H   0  0  0  0  0  0  0  0  0  0  0  0
    0.9989   -5.5624   29.8115 H   0  0  0  0  0  0  0  0  0  0  0  0
    1.2265   -3.9848   29.0151 H   0  0  0  0  0  0  0  0  0  0  0  0
   -0.3284   -4.7313   29.0516 H   0  0  0  0  0  0  0  0  0  0  0  0
    0.3673   -2.0763   29.6390 H   0  0  0  0  0  0  0  0  0  0  0  0
   -1.2679   -2.7356   29.7635 H   0  0  0  0  0  0  0  0  0  0  0  0
    0.2502   -0.9915   31.6387 H   0  0  0  0  0  0  0  0  0  0  0  0
   -0.1945    1.5439   30.3413 H   0  0  0  0  0  0  0  0  0  0  0  0
   -1.9822   -0.1947   26.5859 H   0  0  0  0  0  0  0  0  0  0  0  0
   -1.0455   -4.2559   32.6680 H   0  0  0  0  0  0  0  0  0  0  0  0
   -1.8595   -4.3614   31.1561 H   0  0  0  0  0  0  0  0  0  0  0  0
   -1.2238   -6.8288   29.1237 H   0  0  0  0  0  0  0  0  0  0  0  0
   -0.8933   -9.1169   32.1810 H   0  0  0  0  0  0  0  0  0  0  0  0
    0.5014   -6.0484   34.4444 H   0  0  0  0  0  0  0  0  0  0  0  0
    1.1754   -7.6674   34.2454 H   0  0  0  0  0  0  0  0  0  0  0  0
    3.3927   -6.4891   28.7607 H   0  0  0  0  0  0  0  0  0  0  0  0
    3.7432   -4.7233   26.7486 H   0  0  0  0  0  0  0  0  0  0  0  0
    3.9581   -2.2813   27.9495 H   0  0  0  0  0  0  0  0  0  0  0  0
    3.9119   -2.6799   30.4239 H   0  0  0  0  0  0  0  0  0  0  0  0
  1  2  1  0
  2  3  1  0
  2  4  1  0
  4  5  1  0
  5  6  1  0
  6  7  2  0
  6  8  2  0
  6  9  1  0
  9 10  2  0
 10 11  1  0
 11 12  1  0
 12 13  2  0
  2 14  1  0
 14 15  1  0
 15 16  2  0
 16 17  1  0
 16 18  1  0
 18 19  2  0
 19 20  1  0
 20 21  1  0
 21 22  2  0
 22 23  1  0
 23 24  2  0
 24 25  1  0
 25 26  2  0
 26 27  1  0
 27 28  2  0
 28 29  1  0
 24 30  1  0
 13  9  1  0
 19 15  1  0
 30 21  1  0
 29 25  1  0
  1 31  1  0
  1 32  1  0
  1 33  1  0
  3 34  1  0
  3 35  1  0
  3 36  1  0
  4 37  1  0
  4 38  1  0
  5 39  1  0
 10 40  1  0
 12 41  1  0
 14 42  1  0
 14 43  1  0
 17 44  1  0
 18 45  1  0
 20 46  1  0
 20 47  1  0
 26 48  1  0
 27 49  1  0
 28 50  1  0
 29 51  1  0
M  END
>  <Energy>  (1056) 
100.30253499929465

>  <compound_id>  (1056) 
3069

>  <target_id>  (1056) 
1

>  <reference_id>  (1056) 
195

>  <inspiration_ids>  (1056) 
[195, 177]

>  <energy_score>  (1056) 
-61.77078665191317

>  <distance_score>  (1056) 
2.2042081832113487

>  <path>  (1056) 
/opt/xchem-fragalysis-2/maxwin/BulkDock/SCRATCH/505736/C3069-P195/C3069-P195.minimised.mol

>  <scratch_subdir>  (1056) 
/opt/xchem-fragalysis-2/maxwin/BulkDock/SCRATCH/505736/C3069-P195

>  <fragmenstein_runtime>  (1056) 
4.865671396255493

>  <fragmenstein_outcome>  (1056) 
too moved

>  <fragmenstein_mode>  (1056) 
expansion

>  <fragmenstein_error>  (1056) 


$$$$
C3069-P177
     RDKit          3D

 51 54  0  0  0  0  0  0  0  0999 V2000
    1.5420   -4.9123   29.8730 C   0  0  0  0  0  0  0  0  0  0  0  0
    0.1239   -5.0869   29.4948 C   0  0  0  0  0  0  0  0  0  0  0  0
    0.0632   -6.0155   28.2758 C   0  0  0  0  0  0  0  0  0  0  0  0
   -0.3716   -3.6688   29.0644 C   0  0  0  0  0  0  0  0  0  0  0  0
   -1.5441   -3.2147   29.8182 N   0  0  0  0  0  0  0  0  0  0  0  0
   -1.3800   -2.1215   31.0837 S   0  0  0  0  0  0  0  0  0  0  0  0
   -0.2044   -2.4234   31.8572 O   0  0  0  0  0  0  0  0  0  0  0  0
   -2.6886   -1.9784   31.6756 O   0  0  0  0  0  0  0  0  0  0  0  0
   -1.0380   -0.6038   30.3223 C   0  0  0  0  0  0  0  0  0  0  0  0
   -0.0787    0.2861   30.7576 C   0  0  0  0  0  0  0  0  0  0  0  0
    0.1103    1.5254   29.5914 S   0  0  0  0  0  0  0  0  0  0  0  0
   -1.1799    0.8509   28.6947 C   0  0  0  0  0  0  0  0  0  0  0  0
   -1.6576   -0.2930   29.1195 N   0  0  0  0  0  0  0  0  0  0  0  0
   -0.6305   -5.7069   30.6461 C   0  0  0  0  0  0  0  0  0  0  0  0
   -0.2200   -6.6192   31.7840 C   0  0  0  0  0  0  0  0  0  0  0  0
   -0.7585   -7.8323   32.0207 C   0  0  0  0  0  0  0  0  0  0  0  0
   -1.4218   -8.6909   31.3587 O   0  0  0  0  0  0  0  0  0  0  0  0
   -0.6699   -7.5503   33.4084 C   0  0  0  0  0  0  0  0  0  0  0  0
    0.1463   -6.5126   33.1534 C   0  0  0  0  0  0  0  0  0  0  0  0
    0.8786   -5.5561   34.1167 C   0  0  0  0  0  0  0  0  0  0  0  0
    1.7451   -4.4834   33.5558 C   0  0  0  0  0  0  0  0  0  0  0  0
    1.8809   -3.2561   34.0081 N   0  0  0  0  0  0  0  0  0  0  0  0
    2.7169   -2.5865   33.1203 N   0  0  0  0  0  0  0  0  0  0  0  0
    3.0940   -3.4562   32.2003 C   0  0  0  0  0  0  0  0  0  0  0  0
    3.5959   -3.0766   30.8836 C   0  0  0  0  0  0  0  0  0  0  0  0
    4.5389   -3.6247   30.0292 C   0  0  0  0  0  0  0  0  0  0  0  0
    4.3673   -3.0434   28.7363 C   0  0  0  0  0  0  0  0  0  0  0  0
    3.3501   -2.1226   28.8336 C   0  0  0  0  0  0  0  0  0  0  0  0
    2.9512   -2.0911   30.1479 N   0  0  0  0  0  0  0  0  0  0  0  0
    2.5945   -4.7314   32.5024 O   0  0  0  0  0  0  0  0  0  0  0  0
    1.9274   -5.7029   30.4930 H   0  0  0  0  0  0  0  0  0  0  0  0
    1.5214   -4.0329   30.4923 H   0  0  0  0  0  0  0  0  0  0  0  0
    2.1913   -4.7794   29.0069 H   0  0  0  0  0  0  0  0  0  0  0  0
   -0.9474   -6.0786   27.8588 H   0  0  0  0  0  0  0  0  0  0  0  0
    0.3833   -7.0329   28.5203 H   0  0  0  0  0  0  0  0  0  0  0  0
    0.7231   -5.6266   27.4991 H   0  0  0  0  0  0  0  0  0  0  0  0
    0.4083   -2.9013   29.1035 H   0  0  0  0  0  0  0  0  0  0  0  0
   -0.6581   -3.6815   28.0051 H   0  0  0  0  0  0  0  0  0  0  0  0
   -2.2509   -2.8498   29.1626 H   0  0  0  0  0  0  0  0  0  0  0  0
    0.5383    0.2327   31.6453 H   0  0  0  0  0  0  0  0  0  0  0  0
   -1.5763    1.3437   27.8267 H   0  0  0  0  0  0  0  0  0  0  0  0
   -1.2670   -4.9812   31.1518 H   0  0  0  0  0  0  0  0  0  0  0  0
   -1.2605   -6.4377   30.1381 H   0  0  0  0  0  0  0  0  0  0  0  0
   -0.7916   -9.1414   30.7524 H   0  0  0  0  0  0  0  0  0  0  0  0
   -1.0234   -8.0135   34.3201 H   0  0  0  0  0  0  0  0  0  0  0  0
    0.1236   -5.0787   34.7550 H   0  0  0  0  0  0  0  0  0  0  0  0
    1.5027   -6.1608   34.7871 H   0  0  0  0  0  0  0  0  0  0  0  0
    5.2372   -4.4102   30.2849 H   0  0  0  0  0  0  0  0  0  0  0  0
    4.9209   -3.2830   27.8367 H   0  0  0  0  0  0  0  0  0  0  0  0
    2.9044   -1.4638   28.0987 H   0  0  0  0  0  0  0  0  0  0  0  0
    2.2112   -1.5139   30.5254 H   0  0  0  0  0  0  0  0  0  0  0  0
  1  2  1  0
  2  3  1  0
  2  4  1  0
  4  5  1  0
  5  6  1  0
  6  7  2  0
  6  8  2  0
  6  9  1  0
  9 10  2  0
 10 11  1  0
 11 12  1  0
 12 13  2  0
  2 14  1  0
 14 15  1  0
 15 16  2  0
 16 17  1  0
 16 18  1  0
 18 19  2  0
 19 20  1  0
 20 21  1  0
 21 22  2  0
 22 23  1  0
 23 24  2  0
 24 25  1  0
 25 26  2  0
 26 27  1  0
 27 28  2  0
 28 29  1  0
 24 30  1  0
 13  9  1  0
 19 15  1  0
 30 21  1  0
 29 25  1  0
  1 31  1  0
  1 32  1  0
  1 33  1  0
  3 34  1  0
  3 35  1  0
  3 36  1  0
  4 37  1  0
  4 38  1  0
  5 39  1  0
 10 40  1  0
 12 41  1  0
 14 42  1  0
 14 43  1  0
 17 44  1  0
 18 45  1  0
 20 46  1  0
 20 47  1  0
 26 48  1  0
 27 49  1  0
 28 50  1  0
 29 51  1  0
M  END
>  <Energy>  (1057) 
97.315297293542699

>  <compound_id>  (1057) 
3069

>  <target_id>  (1057) 
1

>  <reference_id>  (1057) 
177

>  <inspiration_ids>  (1057) 
[195, 177]

>  <energy_score>  (1057) 
-64.7580243576661

>  <distance_score>  (1057) 
2.498716399663971

>  <path>  (1057) 
/opt/xchem-fragalysis-2/maxwin/BulkDock/SCRATCH/505736/C3069-P177/C3069-P177.minimised.mol

>  <scratch_subdir>  (1057) 
/opt/xchem-fragalysis-2/maxwin/BulkDock/SCRATCH/505736/C3069-P177

>  <fragmenstein_runtime>  (1057) 
5.566461086273193

>  <fragmenstein_outcome>  (1057) 
too moved

>  <fragmenstein_mode>  (1057) 
expansion

>  <fragmenstein_error>  (1057) 


$$$$
C3071-P195
     RDKit          3D

 57 61  0  0  0  0  0  0  0  0999 V2000
   -1.2224   -0.5616   32.2344 O   0  0  0  0  0  0  0  0  0  0  0  0
   -1.2067   -1.4592   31.1000 S   0  0  0  0  0  0  0  0  0  0  0  0
   -2.1577   -2.5386   30.9617 O   0  0  0  0  0  0  0  0  0  0  0  0
    0.3659   -2.0607   30.9938 N   0  0  0  0  0  0  0  0  0  0  0  0
    0.7099   -2.8820   29.8236 C   0  0  0  0  0  0  0  0  0  0  0  0
    2.0040   -3.6698   30.0817 C   0  0  0  0  0  0  0  0  0  0  0  0
    1.9811   -5.0231   29.3933 C   0  0  0  0  0  0  0  0  0  0  0  0
    1.1144   -6.0025   30.0342 N   0  0  0  0  0  0  0  0  0  0  0  0
    0.7474   -5.7139   31.3816 N   0  0  0  0  0  0  0  0  0  0  0  0
   -0.6685   -5.4254   31.5824 C   0  0  0  0  0  0  0  0  0  0  0  0
   -1.4669   -6.5736   31.3292 O   0  0  0  0  0  0  0  0  0  0  0  0
   -0.7607   -4.8286   32.9830 C   0  0  0  0  0  0  0  0  0  0  0  0
    0.6265   -4.2578   33.2313 C   0  0  0  0  0  0  0  0  0  0  0  0
    1.2234   -4.1297   34.6943 C   0  0  0  0  0  0  0  0  0  0  0  0
    2.5649   -4.7240   34.8109 N   0  0  0  0  0  0  0  0  0  0  0  0
    2.4901   -5.6542   35.9146 N   0  0  0  0  0  0  0  0  0  0  0  0
    1.0846   -5.8541   36.2250 C   0  0  0  0  0  0  0  0  0  0  0  0
    0.3637   -6.9081   35.4354 C   0  0  0  0  0  0  0  0  0  0  0  0
   -0.9449   -7.2063   35.8236 C   0  0  0  0  0  0  0  0  0  0  0  0
   -1.8125   -7.8256   34.9416 C   0  0  0  0  0  0  0  0  0  0  0  0
   -1.3984   -8.1022   33.6554 C   0  0  0  0  0  0  0  0  0  0  0  0
   -0.0825   -7.8970   33.3005 C   0  0  0  0  0  0  0  0  0  0  0  0
    0.8184   -7.3552   34.2002 C   0  0  0  0  0  0  0  0  0  0  0  0
    0.4890   -4.5648   35.8810 N   0  0  0  0  0  0  0  0  0  0  0  0
    1.5379   -4.9074   32.2377 N   0  0  0  0  0  0  0  0  0  0  0  0
    2.3853   -3.9552   31.5349 C   0  0  0  0  0  0  0  0  0  0  0  0
   -1.3459   -0.4386   29.7015 C   0  0  0  0  0  0  0  0  0  0  0  0
   -0.7014    0.7795   29.6168 C   0  0  0  0  0  0  0  0  0  0  0  0
   -0.8703    1.4150   28.0373 S   0  0  0  0  0  0  0  0  0  0  0  0
   -1.7204   -0.0000   27.5807 C   0  0  0  0  0  0  0  0  0  0  0  0
   -1.8860   -0.9049   28.5184 N   0  0  0  0  0  0  0  0  0  0  0  0
    1.0376   -1.3242   31.2111 H   0  0  0  0  0  0  0  0  0  0  0  0
    0.8888   -2.2124   28.9726 H   0  0  0  0  0  0  0  0  0  0  0  0
   -0.1172   -3.5240   29.5192 H   0  0  0  0  0  0  0  0  0  0  0  0
    2.8254   -3.0834   29.6465 H   0  0  0  0  0  0  0  0  0  0  0  0
    2.9966   -5.4398   29.3801 H   0  0  0  0  0  0  0  0  0  0  0  0
    1.7065   -4.9015   28.3408 H   0  0  0  0  0  0  0  0  0  0  0  0
    0.2673   -6.1598   29.4797 H   0  0  0  0  0  0  0  0  0  0  0  0
   -1.0098   -4.6735   30.8791 H   0  0  0  0  0  0  0  0  0  0  0  0
   -2.1551   -6.5557   32.0137 H   0  0  0  0  0  0  0  0  0  0  0  0
   -1.4931   -4.0150   32.9899 H   0  0  0  0  0  0  0  0  0  0  0  0
   -1.1075   -5.5105   33.7406 H   0  0  0  0  0  0  0  0  0  0  0  0
    0.5120   -3.2079   32.9551 H   0  0  0  0  0  0  0  0  0  0  0  0
    1.3854   -3.0503   34.8269 H   0  0  0  0  0  0  0  0  0  0  0  0
    2.7329   -5.1959   33.9143 H   0  0  0  0  0  0  0  0  0  0  0  0
    2.9481   -6.5496   35.7552 H   0  0  0  0  0  0  0  0  0  0  0  0
    0.9758   -6.0644   37.2955 H   0  0  0  0  0  0  0  0  0  0  0  0
   -1.2868   -6.8615   36.7903 H   0  0  0  0  0  0  0  0  0  0  0  0
   -2.8003   -8.1551   35.2158 H   0  0  0  0  0  0  0  0  0  0  0  0
   -2.0717   -8.5712   32.9457 H   0  0  0  0  0  0  0  0  0  0  0  0
    0.2209   -8.1290   32.2849 H   0  0  0  0  0  0  0  0  0  0  0  0
    1.8185   -7.1451   33.8479 H   0  0  0  0  0  0  0  0  0  0  0  0
    0.8079   -3.9501   36.6261 H   0  0  0  0  0  0  0  0  0  0  0  0
    3.3942   -4.3933   31.5291 H   0  0  0  0  0  0  0  0  0  0  0  0
    2.5214   -3.0215   32.0958 H   0  0  0  0  0  0  0  0  0  0  0  0
   -0.1507    1.3089   30.3815 H   0  0  0  0  0  0  0  0  0  0  0  0
   -2.0959   -0.1407   26.5754 H   0  0  0  0  0  0  0  0  0  0  0  0
  1  2  2  0
  2  3  2  0
  2  4  1  0
  4  5  1  0
  5  6  1  0
  6  7  1  0
  7  8  1  0
  8  9  1  0
  9 10  1  0
 10 11  1  0
 10 12  1  0
 12 13  1  0
 13 14  1  0
 14 15  1  0
 15 16  1  0
 16 17  1  0
 17 18  1  0
 18 19  2  0
 19 20  1  0
 20 21  2  0
 21 22  1  0
 22 23  2  0
 17 24  1  0
 13 25  1  0
 25 26  1  0
  2 27  1  0
 27 28  2  0
 28 29  1  0
 29 30  1  0
 30 31  2  0
 26  6  1  0
 31 27  1  0
 25  9  1  0
 24 14  1  0
 23 18  1  0
  4 32  1  0
  5 33  1  0
  5 34  1  0
  6 35  1  0
  7 36  1  0
  7 37  1  0
  8 38  1  0
 10 39  1  0
 11 40  1  0
 12 41  1  0
 12 42  1  0
 13 43  1  0
 14 44  1  0
 15 45  1  0
 16 46  1  0
 17 47  1  0
 19 48  1  0
 20 49  1  0
 21 50  1  0
 22 51  1  0
 23 52  1  0
 24 53  1  0
 26 54  1  0
 26 55  1  0
 28 56  1  0
 30 57  1  0
M  END
>  <Energy>  (1058) 
105.23438782858111

>  <compound_id>  (1058) 
3071

>  <target_id>  (1058) 
1

>  <reference_id>  (1058) 
195

>  <inspiration_ids>  (1058) 
[195, 183]

>  <energy_score>  (1058) 
-15.206201059408613

>  <distance_score>  (1058) 
1.8200493992157387

>  <path>  (1058) 
/opt/xchem-fragalysis-2/maxwin/BulkDock/SCRATCH/505736/C3071-P195/C3071-P195.minimised.mol

>  <scratch_subdir>  (1058) 
/opt/xchem-fragalysis-2/maxwin/BulkDock/SCRATCH/505736/C3071-P195

>  <fragmenstein_runtime>  (1058) 
4.729968070983887

>  <fragmenstein_outcome>  (1058) 
too moved

>  <fragmenstein_mode>  (1058) 
expansion

>  <fragmenstein_error>  (1058) 


$$$$
C3071-P183
     RDKit          3D

 57 61  0  0  0  0  0  0  0  0999 V2000
   -1.3980   -0.6084   32.7024 O   0  0  0  0  0  0  0  0  0  0  0  0
   -1.4691   -1.6145   31.6670 S   0  0  0  0  0  0  0  0  0  0  0  0
   -2.5481   -2.5760   31.5788 O   0  0  0  0  0  0  0  0  0  0  0  0
    0.0153   -2.4432   31.6810 N   0  0  0  0  0  0  0  0  0  0  0  0
    0.1139   -3.4418   30.6063 C   0  0  0  0  0  0  0  0  0  0  0  0
    1.3842   -4.2856   30.7339 C   0  0  0  0  0  0  0  0  0  0  0  0
    1.3116   -5.3912   29.7030 C   0  0  0  0  0  0  0  0  0  0  0  0
    0.1272   -6.1633   30.0512 N   0  0  0  0  0  0  0  0  0  0  0  0
    0.3079   -6.9068   31.2367 N   0  0  0  0  0  0  0  0  0  0  0  0
   -1.0054   -7.4386   31.6632 C   0  0  0  0  0  0  0  0  0  0  0  0
   -1.2920   -8.6937   31.0838 O   0  0  0  0  0  0  0  0  0  0  0  0
   -0.9017   -7.4574   33.1662 C   0  0  0  0  0  0  0  0  0  0  0  0
   -0.1776   -6.1548   33.4474 C   0  0  0  0  0  0  0  0  0  0  0  0
    0.5202   -6.1453   34.8322 C   0  0  0  0  0  0  0  0  0  0  0  0
    0.9577   -4.7922   35.2075 N   0  0  0  0  0  0  0  0  0  0  0  0
    0.7545   -4.6959   36.6340 N   0  0  0  0  0  0  0  0  0  0  0  0
    0.3768   -6.0280   37.1076 C   0  0  0  0  0  0  0  0  0  0  0  0
    1.5262   -6.8759   37.6424 C   0  0  0  0  0  0  0  0  0  0  0  0
    1.2415   -7.8889   38.5720 C   0  0  0  0  0  0  0  0  0  0  0  0
    2.2626   -8.6526   39.1432 C   0  0  0  0  0  0  0  0  0  0  0  0
    3.5873   -8.4396   38.7749 C   0  0  0  0  0  0  0  0  0  0  0  0
    3.8914   -7.4639   37.8311 C   0  0  0  0  0  0  0  0  0  0  0  0
    2.8711   -6.6908   37.2695 C   0  0  0  0  0  0  0  0  0  0  0  0
   -0.3028   -6.5850   35.9523 N   0  0  0  0  0  0  0  0  0  0  0  0
    0.7828   -6.1383   32.3442 N   0  0  0  0  0  0  0  0  0  0  0  0
    1.5777   -4.9544   32.0903 C   0  0  0  0  0  0  0  0  0  0  0  0
   -1.4729   -0.7089   30.1696 C   0  0  0  0  0  0  0  0  0  0  0  0
   -0.7845    0.4782   30.0134 C   0  0  0  0  0  0  0  0  0  0  0  0
   -0.8652    0.9861   28.3782 S   0  0  0  0  0  0  0  0  0  0  0  0
   -1.7584   -0.4277   28.0003 C   0  0  0  0  0  0  0  0  0  0  0  0
   -2.0047   -1.2396   29.0046 N   0  0  0  0  0  0  0  0  0  0  0  0
    0.7893   -1.7817   31.7298 H   0  0  0  0  0  0  0  0  0  0  0  0
    0.1373   -2.9321   29.6363 H   0  0  0  0  0  0  0  0  0  0  0  0
   -0.7868   -4.0590   30.6430 H   0  0  0  0  0  0  0  0  0  0  0  0
    2.2532   -3.6457   30.5333 H   0  0  0  0  0  0  0  0  0  0  0  0
    2.2201   -6.0019   29.6703 H   0  0  0  0  0  0  0  0  0  0  0  0
    1.2044   -4.9265   28.7189 H   0  0  0  0  0  0  0  0  0  0  0  0
   -0.2324   -6.7203   29.2808 H   0  0  0  0  0  0  0  0  0  0  0  0
   -1.8090   -6.7594   31.3856 H   0  0  0  0  0  0  0  0  0  0  0  0
   -0.4275   -9.1410   31.0212 H   0  0  0  0  0  0  0  0  0  0  0  0
   -0.3277   -8.3108   33.5048 H   0  0  0  0  0  0  0  0  0  0  0  0
   -1.8667   -7.5203   33.6645 H   0  0  0  0  0  0  0  0  0  0  0  0
   -0.8909   -5.3238   33.3532 H   0  0  0  0  0  0  0  0  0  0  0  0
    1.4005   -6.8001   34.7711 H   0  0  0  0  0  0  0  0  0  0  0  0
    0.3430   -4.1145   34.7458 H   0  0  0  0  0  0  0  0  0  0  0  0
    1.5803   -4.3764   37.1420 H   0  0  0  0  0  0  0  0  0  0  0  0
   -0.3411   -5.8943   37.9266 H   0  0  0  0  0  0  0  0  0  0  0  0
    0.2114   -8.0994   38.8534 H   0  0  0  0  0  0  0  0  0  0  0  0
    2.0107   -9.4275   39.8619 H   0  0  0  0  0  0  0  0  0  0  0  0
    4.3782   -9.0395   39.2157 H   0  0  0  0  0  0  0  0  0  0  0  0
    4.9233   -7.2984   37.5335 H   0  0  0  0  0  0  0  0  0  0  0  0
    3.1427   -5.9373   36.5340 H   0  0  0  0  0  0  0  0  0  0  0  0
   -1.1703   -6.0600   35.8854 H   0  0  0  0  0  0  0  0  0  0  0  0
    2.6272   -5.2692   32.1544 H   0  0  0  0  0  0  0  0  0  0  0  0
    1.4757   -4.1999   32.8715 H   0  0  0  0  0  0  0  0  0  0  0  0
   -0.2491    1.0520   30.7567 H   0  0  0  0  0  0  0  0  0  0  0  0
   -2.0980   -0.6380   26.9933 H   0  0  0  0  0  0  0  0  0  0  0  0
  1  2  2  0
  2  3  2  0
  2  4  1  0
  4  5  1  0
  5  6  1  0
  6  7  1  0
  7  8  1  0
  8  9  1  0
  9 10  1  0
 10 11  1  0
 10 12  1  0
 12 13  1  0
 13 14  1  0
 14 15  1  0
 15 16  1  0
 16 17  1  0
 17 18  1  0
 18 19  2  0
 19 20  1  0
 20 21  2  0
 21 22  1  0
 22 23  2  0
 17 24  1  0
 13 25  1  0
 25 26  1  0
  2 27  1  0
 27 28  2  0
 28 29  1  0
 29 30  1  0
 30 31  2  0
 26  6  1  0
 31 27  1  0
 25  9  1  0
 24 14  1  0
 23 18  1  0
  4 32  1  0
  5 33  1  0
  5 34  1  0
  6 35  1  0
  7 36  1  0
  7 37  1  0
  8 38  1  0
 10 39  1  0
 11 40  1  0
 12 41  1  0
 12 42  1  0
 13 43  1  0
 14 44  1  0
 15 45  1  0
 16 46  1  0
 17 47  1  0
 19 48  1  0
 20 49  1  0
 21 50  1  0
 22 51  1  0
 23 52  1  0
 24 53  1  0
 26 54  1  0
 26 55  1  0
 28 56  1  0
 30 57  1  0
M  END
>  <Energy>  (1059) 
53.682498193117397

>  <compound_id>  (1059) 
3071

>  <target_id>  (1059) 
1

>  <reference_id>  (1059) 
183

>  <inspiration_ids>  (1059) 
[195, 183]

>  <energy_score>  (1059) 
-66.75809069487065

>  <distance_score>  (1059) 
1.588527221615141

>  <path>  (1059) 
/opt/xchem-fragalysis-2/maxwin/BulkDock/SCRATCH/505736/C3071-P183/C3071-P183.minimised.mol

>  <scratch_subdir>  (1059) 
/opt/xchem-fragalysis-2/maxwin/BulkDock/SCRATCH/505736/C3071-P183

>  <fragmenstein_runtime>  (1059) 
8.516090631484985

>  <fragmenstein_outcome>  (1059) 
too moved

>  <fragmenstein_mode>  (1059) 
expansion

>  <fragmenstein_error>  (1059) 


$$$$
C181-P195
     RDKit          3D

 70 74  0  0  0  0  0  0  0  0999 V2000
   -0.1868   -6.4023   35.4646 C   0  0  0  0  0  0  0  0  0  0  0  0
   -0.2397   -6.6115   33.9821 C   0  0  0  0  0  0  0  0  0  0  0  0
   -1.1604   -7.4755   33.4372 C   0  0  0  0  0  0  0  0  0  0  0  0
   -1.1406   -7.5910   32.0694 C   0  0  0  0  0  0  0  0  0  0  0  0
   -1.9952   -8.4355   31.4212 O   0  0  0  0  0  0  0  0  0  0  0  0
   -0.3085   -6.9200   31.2641 N   0  0  0  0  0  0  0  0  0  0  0  0
    0.5424   -6.0858   31.8835 C   0  0  0  0  0  0  0  0  0  0  0  0
    1.5862   -5.4051   31.0519 C   0  0  0  0  0  0  0  0  0  0  0  0
    1.2700   -3.9859   30.5418 C   0  0  0  0  0  0  0  0  0  0  0  0
    2.4936   -3.3595   30.0220 N   0  0  0  0  0  0  0  0  0  0  0  0
    2.7720   -3.4562   28.5847 C   0  0  0  0  0  0  0  0  0  0  0  0
    2.7236   -4.8625   27.9791 C   0  0  0  0  0  0  0  0  0  0  0  0
    3.4778   -5.0938   26.6574 C   0  0  0  0  0  0  0  0  0  0  0  0
    3.1741   -6.3987   26.0868 N   0  0  0  0  0  0  0  0  0  0  0  0
    3.4608   -3.9878   25.6624 C   0  0  0  0  0  0  0  0  0  0  0  0
    4.4479   -3.0706   26.0155 O   0  0  0  0  0  0  0  0  0  0  0  0
    4.5366   -2.1467   25.0440 C   0  0  0  0  0  0  0  0  0  0  0  0
    3.7450   -2.3766   24.0270 N   0  0  0  0  0  0  0  0  0  0  0  0
    2.8789   -3.5176   24.4370 C   0  0  0  0  0  0  0  0  0  0  0  0
    1.4415   -3.8533   23.2808 C   0  0  0  0  0  0  0  0  0  0  0  0
    0.5519   -4.6480   23.3917 O   0  0  0  0  0  0  0  0  0  0  0  0
    1.7635   -3.0340   22.2935 N   0  0  0  0  0  0  0  0  0  0  0  0
    1.1871   -2.8566   20.8581 C   0  0  0  0  0  0  0  0  0  0  0  0
    0.7804   -3.8958   20.1564 C   0  0  0  0  0  0  0  0  0  0  0  0
    0.7148   -3.3901   18.6976 N   0  0  0  0  0  0  0  0  0  0  0  0
    1.3930   -2.0326   17.9463 C   0  0  0  0  0  0  0  0  0  0  0  0
    0.6401   -1.2896   17.2976 O   0  0  0  0  0  0  0  0  0  0  0  0
    2.7885   -1.3959   18.4482 C   0  0  0  0  0  0  0  0  0  0  0  0
    4.6168   -1.0569   18.2249 C   0  0  0  0  0  0  0  0  0  0  0  0
    5.8667    0.0614   19.2561 C   0  0  0  0  0  0  0  0  0  0  0  0
    5.0528    0.3210   21.0688 C   0  0  0  0  0  0  0  0  0  0  0  0
    3.1369    0.1392   21.2539 C   0  0  0  0  0  0  0  0  0  0  0  0
    1.9442   -1.0205   19.8810 C   0  0  0  0  0  0  0  0  0  0  0  0
    0.9301   -3.1112   31.6561 N   0  0  0  0  0  0  0  0  0  0  0  0
   -0.6575   -2.5543   31.7590 S   0  0  0  0  0  0  0  0  0  0  0  0
   -0.7082   -1.6153   32.8603 O   0  0  0  0  0  0  0  0  0  0  0  0
   -1.5894   -3.6548   31.6351 O   0  0  0  0  0  0  0  0  0  0  0  0
   -0.9379   -1.5517   30.3501 C   0  0  0  0  0  0  0  0  0  0  0  0
   -0.6177   -0.2086   30.2937 C   0  0  0  0  0  0  0  0  0  0  0  0
   -0.9742    0.4068   28.7322 S   0  0  0  0  0  0  0  0  0  0  0  0
   -1.5396   -1.1441   28.2692 C   0  0  0  0  0  0  0  0  0  0  0  0
   -1.4306   -2.0926   29.1718 N   0  0  0  0  0  0  0  0  0  0  0  0
    0.6405   -5.9354   33.2201 N   0  0  0  0  0  0  0  0  0  0  0  0
    0.6164   -5.7080   35.7314 H   0  0  0  0  0  0  0  0  0  0  0  0
   -1.1326   -5.9826   35.8209 H   0  0  0  0  0  0  0  0  0  0  0  0
    0.0003   -7.3524   35.9753 H   0  0  0  0  0  0  0  0  0  0  0  0
   -1.8425   -8.0279   34.0672 H   0  0  0  0  0  0  0  0  0  0  0  0
   -2.5936   -8.8384   32.0805 H   0  0  0  0  0  0  0  0  0  0  0  0
    1.7825   -6.0574   30.1982 H   0  0  0  0  0  0  0  0  0  0  0  0
    2.5106   -5.3941   31.6458 H   0  0  0  0  0  0  0  0  0  0  0  0
    0.4780   -4.0073   29.7869 H   0  0  0  0  0  0  0  0  0  0  0  0
    3.2976   -3.6928   30.5520 H   0  0  0  0  0  0  0  0  0  0  0  0
    3.7704   -3.0294   28.4431 H   0  0  0  0  0  0  0  0  0  0  0  0
    2.0761   -2.8003   28.0498 H   0  0  0  0  0  0  0  0  0  0  0  0
    1.6743   -5.1175   27.8671 H   0  0  0  0  0  0  0  0  0  0  0  0
    3.1505   -5.5756   28.6951 H   0  0  0  0  0  0  0  0  0  0  0  0
    4.5339   -5.1823   26.9588 H   0  0  0  0  0  0  0  0  0  0  0  0
    3.4614   -7.1261   26.7364 H   0  0  0  0  0  0  0  0  0  0  0  0
    3.7747   -6.5481   25.2678 H   0  0  0  0  0  0  0  0  0  0  0  0
    5.2239   -1.3280   25.1915 H   0  0  0  0  0  0  0  0  0  0  0  0
    2.5172   -2.4584   22.5944 H   0  0  0  0  0  0  0  0  0  0  0  0
    1.0182   -4.8608   20.5593 H   0  0  0  0  0  0  0  0  0  0  0  0
   -0.2698   -3.1183   18.6491 H   0  0  0  0  0  0  0  0  0  0  0  0
    5.0405   -1.4232   17.3471 H   0  0  0  0  0  0  0  0  0  0  0  0
    6.9375   -0.1968   19.1789 H   0  0  0  0  0  0  0  0  0  0  0  0
    5.6124   -0.5202   21.4419 H   0  0  0  0  0  0  0  0  0  0  0  0
    4.0209   -0.6393   21.9812 H   0  0  0  0  0  0  0  0  0  0  0  0
    1.5859   -2.3361   31.7159 H   0  0  0  0  0  0  0  0  0  0  0  0
   -0.2012    0.4184   31.0692 H   0  0  0  0  0  0  0  0  0  0  0  0
   -1.9631   -1.3253   27.2902 H   0  0  0  0  0  0  0  0  0  0  0  0
  1  2  1  0
  2  3  2  0
  3  4  1  0
  4  5  1  0
  4  6  2  0
  6  7  1  0
  7  8  1  0
  8  9  1  0
  9 10  1  0
 10 11  1  0
 11 12  1  0
 12 13  1  0
 13 14  1  0
 13 15  1  0
 15 16  1  0
 16 17  1  0
 17 18  2  0
 18 19  1  0
 19 20  1  0
 20 21  2  0
 20 22  1  0
 22 23  1  0
 23 24  2  0
 24 25  1  0
 25 26  1  0
 26 27  2  0
 26 28  1  0
 28 29  2  0
 29 30  1  0
 30 31  2  0
 31 32  1  0
 32 33  2  0
  9 34  1  0
 34 35  1  0
 35 36  2  0
 35 37  2  0
 35 38  1  0
 38 39  2  0
 39 40  1  0
 40 41  1  0
 41 42  2  0
  7 43  2  0
 43  2  1  0
 19 15  2  0
 33 23  1  0
 42 38  1  0
 33 28  1  0
  1 44  1  0
  1 45  1  0
  1 46  1  0
  3 47  1  0
  5 48  1  0
  8 49  1  0
  8 50  1  0
  9 51  1  0
 10 52  1  0
 11 53  1  0
 11 54  1  0
 12 55  1  0
 12 56  1  0
 13 57  1  0
 14 58  1  0
 14 59  1  0
 17 60  1  0
 22 61  1  0
 24 62  1  0
 25 63  1  0
 29 64  1  0
 30 65  1  0
 31 66  1  0
 32 67  1  0
 34 68  1  0
 39 69  1  0
 41 70  1  0
M  END
>  <Energy>  (1060) 
1036.2578299128227

>  <compound_id>  (1060) 
181

>  <target_id>  (1060) 
1

>  <reference_id>  (1060) 
195

>  <inspiration_ids>  (1060) 
[195, 186]

>  <energy_score>  (1060) 
936.1739463050768

>  <distance_score>  (1060) 
0.6652389421738301

>  <path>  (1060) 
/opt/xchem-fragalysis-2/maxwin/BulkDock/SCRATCH/505736/C181-P195/C181-P195.minimised.mol

>  <scratch_subdir>  (1060) 
/opt/xchem-fragalysis-2/maxwin/BulkDock/SCRATCH/505736/C181-P195

>  <fragmenstein_runtime>  (1060) 
20.221632480621338

>  <fragmenstein_outcome>  (1060) 
too contorted

>  <fragmenstein_mode>  (1060) 
expansion

>  <fragmenstein_error>  (1060) 


$$$$
C181-P186
     RDKit          3D

 70 74  0  0  0  0  0  0  0  0999 V2000
   -0.0399   -6.4157   35.1967 C   0  0  0  0  0  0  0  0  0  0  0  0
   -0.1998   -6.7013   33.7344 C   0  0  0  0  0  0  0  0  0  0  0  0
   -1.1484   -7.5982   33.2981 C   0  0  0  0  0  0  0  0  0  0  0  0
   -1.2252   -7.7740   31.9395 C   0  0  0  0  0  0  0  0  0  0  0  0
   -2.1189   -8.6215   31.3715 O   0  0  0  0  0  0  0  0  0  0  0  0
   -0.4714   -7.1305   31.0477 N   0  0  0  0  0  0  0  0  0  0  0  0
    0.4197   -6.2789   31.5607 C   0  0  0  0  0  0  0  0  0  0  0  0
    1.2597   -5.4913   30.6083 C   0  0  0  0  0  0  0  0  0  0  0  0
    0.7126   -4.0653   30.4022 C   0  0  0  0  0  0  0  0  0  0  0  0
    1.6724   -3.4103   29.5163 N   0  0  0  0  0  0  0  0  0  0  0  0
    1.2747   -2.1016   29.0129 C   0  0  0  0  0  0  0  0  0  0  0  0
    0.0855   -2.0330   28.0328 C   0  0  0  0  0  0  0  0  0  0  0  0
    0.0336   -3.0512   26.8778 C   0  0  0  0  0  0  0  0  0  0  0  0
   -1.1646   -2.7656   26.0732 N   0  0  0  0  0  0  0  0  0  0  0  0
    1.2324   -3.0735   25.9996 C   0  0  0  0  0  0  0  0  0  0  0  0
    2.3405   -2.4210   26.4771 O   0  0  0  0  0  0  0  0  0  0  0  0
    3.2029   -2.3710   25.4459 C   0  0  0  0  0  0  0  0  0  0  0  0
    2.7635   -2.9650   24.3706 N   0  0  0  0  0  0  0  0  0  0  0  0
    1.5344   -3.5118   24.7186 C   0  0  0  0  0  0  0  0  0  0  0  0
    0.6497   -4.0994   23.6488 C   0  0  0  0  0  0  0  0  0  0  0  0
   -0.4362   -4.5445   23.9325 O   0  0  0  0  0  0  0  0  0  0  0  0
    1.3349   -3.8999   22.2635 N   0  0  0  0  0  0  0  0  0  0  0  0
    0.7268   -4.1250   20.6317 C   0  0  0  0  0  0  0  0  0  0  0  0
    0.7430   -2.9181   21.0850 C   0  0  0  0  0  0  0  0  0  0  0  0
    0.9956   -1.2817   20.1157 N   0  0  0  0  0  0  0  0  0  0  0  0
    0.6029   -0.9412   18.7984 C   0  0  0  0  0  0  0  0  0  0  0  0
    0.4011    0.0543   18.1219 O   0  0  0  0  0  0  0  0  0  0  0  0
    1.1669   -2.0107   18.2433 C   0  0  0  0  0  0  0  0  0  0  0  0
    2.5245   -1.3116   18.2864 C   0  0  0  0  0  0  0  0  0  0  0  0
    3.7294   -1.9198   18.0800 C   0  0  0  0  0  0  0  0  0  0  0  0
    3.3913   -3.0736   17.5868 C   0  0  0  0  0  0  0  0  0  0  0  0
    2.1252   -3.5796   18.1323 C   0  0  0  0  0  0  0  0  0  0  0  0
    0.8782   -3.3244   18.7792 C   0  0  0  0  0  0  0  0  0  0  0  0
    0.6709   -3.3732   31.6944 N   0  0  0  0  0  0  0  0  0  0  0  0
   -0.8053   -2.7533   32.2259 S   0  0  0  0  0  0  0  0  0  0  0  0
   -0.6768   -2.5425   33.6510 O   0  0  0  0  0  0  0  0  0  0  0  0
   -1.8977   -3.5054   31.6441 O   0  0  0  0  0  0  0  0  0  0  0  0
   -0.8899   -1.1296   31.5762 C   0  0  0  0  0  0  0  0  0  0  0  0
    0.0040   -0.1563   31.9878 C   0  0  0  0  0  0  0  0  0  0  0  0
   -0.0383    1.1638   30.9037 S   0  0  0  0  0  0  0  0  0  0  0  0
   -1.3230    0.4027   30.0543 C   0  0  0  0  0  0  0  0  0  0  0  0
   -1.7002   -0.7756   30.5002 N   0  0  0  0  0  0  0  0  0  0  0  0
    0.6058   -6.0450   32.8773 N   0  0  0  0  0  0  0  0  0  0  0  0
    0.7625   -5.6906   35.3664 H   0  0  0  0  0  0  0  0  0  0  0  0
   -0.9671   -6.0005   35.6041 H   0  0  0  0  0  0  0  0  0  0  0  0
    0.2102   -7.3347   35.7363 H   0  0  0  0  0  0  0  0  0  0  0  0
   -1.7833   -8.1275   33.9922 H   0  0  0  0  0  0  0  0  0  0  0  0
   -2.6947   -9.0143   32.0536 H   0  0  0  0  0  0  0  0  0  0  0  0
    1.3151   -6.0233   29.6508 H   0  0  0  0  0  0  0  0  0  0  0  0
    2.2818   -5.4550   31.0074 H   0  0  0  0  0  0  0  0  0  0  0  0
   -0.2692   -4.1268   29.9233 H   0  0  0  0  0  0  0  0  0  0  0  0
    1.8917   -4.0079   28.7207 H   0  0  0  0  0  0  0  0  0  0  0  0
    2.1574   -1.6435   28.5573 H   0  0  0  0  0  0  0  0  0  0  0  0
    1.0892   -1.4385   29.8532 H   0  0  0  0  0  0  0  0  0  0  0  0
    0.0557   -1.0130   27.6262 H   0  0  0  0  0  0  0  0  0  0  0  0
   -0.8362   -2.1628   28.6108 H   0  0  0  0  0  0  0  0  0  0  0  0
   -0.0857   -4.0262   27.3381 H   0  0  0  0  0  0  0  0  0  0  0  0
   -1.2714   -3.5335   25.3977 H   0  0  0  0  0  0  0  0  0  0  0  0
   -1.9799   -2.9286   26.6870 H   0  0  0  0  0  0  0  0  0  0  0  0
    4.1339   -1.8395   25.5921 H   0  0  0  0  0  0  0  0  0  0  0  0
    2.2237   -3.4187   22.3933 H   0  0  0  0  0  0  0  0  0  0  0  0
    0.1642   -2.5330   22.0285 H   0  0  0  0  0  0  0  0  0  0  0  0
    1.1948   -0.4111   20.6131 H   0  0  0  0  0  0  0  0  0  0  0  0
    2.4638   -0.2447   18.3162 H   0  0  0  0  0  0  0  0  0  0  0  0
    4.7031   -1.4989   18.0086 H   0  0  0  0  0  0  0  0  0  0  0  0
    4.0015   -3.6666   16.9282 H   0  0  0  0  0  0  0  0  0  0  0  0
    2.5156   -4.2951   18.8578 H   0  0  0  0  0  0  0  0  0  0  0  0
    1.0941   -3.9009   32.4636 H   0  0  0  0  0  0  0  0  0  0  0  0
    0.7335   -0.2140   32.7844 H   0  0  0  0  0  0  0  0  0  0  0  0
   -1.7751    0.8710   29.1891 H   0  0  0  0  0  0  0  0  0  0  0  0
  1  2  1  0
  2  3  2  0
  3  4  1  0
  4  5  1  0
  4  6  2  0
  6  7  1  0
  7  8  1  0
  8  9  1  0
  9 10  1  0
 10 11  1  0
 11 12  1  0
 12 13  1  0
 13 14  1  0
 13 15  1  0
 15 16  1  0
 16 17  1  0
 17 18  2  0
 18 19  1  0
 19 20  1  0
 20 21  2  0
 20 22  1  0
 22 23  1  0
 23 24  2  0
 24 25  1  0
 25 26  1  0
 26 27  2  0
 26 28  1  0
 28 29  2  0
 29 30  1  0
 30 31  2  0
 31 32  1  0
 32 33  2  0
  9 34  1  0
 34 35  1  0
 35 36  2  0
 35 37  2  0
 35 38  1  0
 38 39  2  0
 39 40  1  0
 40 41  1  0
 41 42  2  0
  7 43  2  0
 43  2  1  0
 19 15  2  0
 33 23  1  0
 42 38  1  0
 33 28  1  0
  1 44  1  0
  1 45  1  0
  1 46  1  0
  3 47  1  0
  5 48  1  0
  8 49  1  0
  8 50  1  0
  9 51  1  0
 10 52  1  0
 11 53  1  0
 11 54  1  0
 12 55  1  0
 12 56  1  0
 13 57  1  0
 14 58  1  0
 14 59  1  0
 17 60  1  0
 22 61  1  0
 24 62  1  0
 25 63  1  0
 29 64  1  0
 30 65  1  0
 31 66  1  0
 32 67  1  0
 34 68  1  0
 39 69  1  0
 41 70  1  0
M  END
>  <Energy>  (1061) 
618.11485024963565

>  <compound_id>  (1061) 
181

>  <target_id>  (1061) 
1

>  <reference_id>  (1061) 
186

>  <inspiration_ids>  (1061) 
[195, 186]

>  <energy_score>  (1061) 
518.030966641876

>  <distance_score>  (1061) 
1.1448182192736538

>  <path>  (1061) 
/opt/xchem-fragalysis-2/maxwin/BulkDock/SCRATCH/505736/C181-P186/C181-P186.minimised.mol

>  <scratch_subdir>  (1061) 
/opt/xchem-fragalysis-2/maxwin/BulkDock/SCRATCH/505736/C181-P186

>  <fragmenstein_runtime>  (1061) 
22.929471254348755

>  <fragmenstein_outcome>  (1061) 
too moved

>  <fragmenstein_mode>  (1061) 
expansion

>  <fragmenstein_error>  (1061) 


$$$$
C192-P196
     RDKit          3D

 51 54  0  0  0  0  0  0  0  0999 V2000
    1.1040    1.6571   28.1651 N   0  0  0  0  0  0  0  0  0  0  0  0
   -0.1324    2.1777   29.0974 S   0  0  0  0  0  0  0  0  0  0  0  0
    0.1195    1.5880   30.4011 O   0  0  0  0  0  0  0  0  0  0  0  0
   -0.1309    3.6220   28.9935 O   0  0  0  0  0  0  0  0  0  0  0  0
   -1.7776    1.5479   28.5106 C   0  0  0  0  0  0  0  0  0  0  0  0
   -2.1313    0.7263   27.3562 N   0  0  0  0  0  0  0  0  0  0  0  0
   -1.7950   -0.6436   27.1116 C   0  0  0  0  0  0  0  0  0  0  0  0
   -0.1396   -1.0134   27.3529 S   0  0  0  0  0  4  0  0  0  0  0  0
    0.3253   -2.3913   28.3171 C   0  0  0  0  0  0  0  0  0  0  0  0
   -0.1690   -1.2776   29.1713 C   0  0  0  0  0  0  0  0  0  0  0  0
   -1.5374   -1.4444   29.7763 C   0  0  0  0  0  0  0  0  0  0  0  0
   -1.5471   -1.3076   31.2826 C   0  0  0  0  0  0  0  0  0  0  0  0
   -0.5612   -2.2262   31.8534 C   0  0  0  0  0  0  0  0  0  0  0  0
    0.3009   -2.0779   32.9067 C   0  0  0  0  0  0  0  0  0  0  0  0
    1.1423   -3.1515   32.8157 N   0  0  0  0  0  0  0  0  0  0  0  0
    0.7619   -3.8954   31.7283 C   0  0  0  0  0  0  0  0  0  0  0  0
    1.4054   -5.1762   31.3365 C   0  0  0  0  0  0  0  0  0  0  0  0
    0.5398   -6.2906   31.7902 C   0  0  0  0  0  0  0  0  0  0  0  0
   -0.1924   -7.0925   31.0414 N   0  0  0  0  0  0  0  0  0  0  0  0
   -1.0357   -7.7035   31.9173 C   0  0  0  0  0  0  0  0  0  0  0  0
   -1.9958   -8.5435   31.5166 O   0  0  0  0  0  0  0  0  0  0  0  0
   -0.7852   -7.3267   33.2185 C   0  0  0  0  0  0  0  0  0  0  0  0
   -1.3098   -7.5749   34.5005 C   0  0  0  0  0  0  0  0  0  0  0  0
   -0.6971   -7.0503   35.5676 C   0  0  0  0  0  0  0  0  0  0  0  0
    0.4962   -6.2164   35.3230 C   0  0  0  0  0  0  0  0  0  0  0  0
    1.0106   -5.9356   34.1678 N   0  0  0  0  0  0  0  0  0  0  0  0
    0.3050   -6.4917   33.1302 N   0  0  0  0  0  0  0  0  0  0  0  0
   -0.3188   -3.3903   31.1909 N   0  0  0  0  0  0  0  0  0  0  0  0
    1.6613    0.8791   28.4969 H   0  0  0  0  0  0  0  0  0  0  0  0
    1.0846    1.8930   27.1650 H   0  0  0  0  0  0  0  0  0  0  0  0
   -2.2972    2.4976   28.3414 H   0  0  0  0  0  0  0  0  0  0  0  0
   -2.2487    1.1423   29.4008 H   0  0  0  0  0  0  0  0  0  0  0  0
   -3.0830    0.9225   27.0690 H   0  0  0  0  0  0  0  0  0  0  0  0
   -1.9627   -0.8598   26.0531 H   0  0  0  0  0  0  0  0  0  0  0  0
   -2.4541   -1.3646   27.5894 H   0  0  0  0  0  0  0  0  0  0  0  0
    0.7413   -0.0136   27.1926 H   0  0  0  0  0  0  0  0  0  0  0  0
    1.3804   -2.6390   28.3793 H   0  0  0  0  0  0  0  0  0  0  0  0
   -0.2722   -3.2965   28.2359 H   0  0  0  0  0  0  0  0  0  0  0  0
    0.5507   -0.7404   29.7690 H   0  0  0  0  0  0  0  0  0  0  0  0
   -1.9455   -2.4284   29.5081 H   0  0  0  0  0  0  0  0  0  0  0  0
   -2.2730   -0.7290   29.4541 H   0  0  0  0  0  0  0  0  0  0  0  0
   -2.5437   -1.5415   31.6743 H   0  0  0  0  0  0  0  0  0  0  0  0
   -1.3204   -0.2775   31.5768 H   0  0  0  0  0  0  0  0  0  0  0  0
    0.4319   -1.3008   33.6455 H   0  0  0  0  0  0  0  0  0  0  0  0
    1.8966   -3.3792   33.4489 H   0  0  0  0  0  0  0  0  0  0  0  0
    1.5202   -5.2103   30.2473 H   0  0  0  0  0  0  0  0  0  0  0  0
    2.4068   -5.2602   31.7707 H   0  0  0  0  0  0  0  0  0  0  0  0
   -2.5195   -8.8830   32.2660 H   0  0  0  0  0  0  0  0  0  0  0  0
   -2.1779   -8.2093   34.6283 H   0  0  0  0  0  0  0  0  0  0  0  0
   -1.0102   -7.2226   36.5856 H   0  0  0  0  0  0  0  0  0  0  0  0
    0.9772   -5.8142   36.2304 H   0  0  0  0  0  0  0  0  0  0  0  0
  1  2  1  0
  2  3  2  0
  2  4  2  0
  2  5  1  0
  5  6  1  0
  6  7  1  0
  7  8  1  0
  8  9  1  0
  9 10  1  0
 10 11  1  0
 11 12  1  0
 12 13  1  0
 13 14  2  0
 14 15  1  0
 15 16  1  0
 16 17  1  0
 17 18  1  0
 18 19  2  0
 19 20  1  0
 20 21  1  0
 20 22  2  0
 22 23  1  0
 23 24  2  0
 24 25  1  0
 25 26  2  0
 26 27  1  0
 16 28  2  0
 10  8  1  0
 28 13  1  0
 27 18  1  0
 27 22  1  0
  1 29  1  0
  1 30  1  0
  5 31  1  0
  5 32  1  0
  6 33  1  0
  7 34  1  0
  7 35  1  0
  8 36  1  0
  9 37  1  0
  9 38  1  0
 10 39  1  0
 11 40  1  0
 11 41  1  0
 12 42  1  0
 12 43  1  0
 14 44  1  0
 15 45  1  0
 17 46  1  0
 17 47  1  0
 21 48  1  0
 23 49  1  0
 24 50  1  0
 25 51  1  0
M  END
>  <Energy>  (1062) 
59.62550990036182

>  <compound_id>  (1062) 
192

>  <target_id>  (1062) 
1

>  <reference_id>  (1062) 
196

>  <inspiration_ids>  (1062) 
[196, 13]

>  <energy_score>  (1062) 
-44.18308231781646

>  <distance_score>  (1062) 
2.089744965774471

>  <path>  (1062) 
/opt/xchem-fragalysis-2/maxwin/BulkDock/SCRATCH/505736/C192-P196/C192-P196.minimised.mol

>  <scratch_subdir>  (1062) 
/opt/xchem-fragalysis-2/maxwin/BulkDock/SCRATCH/505736/C192-P196

>  <fragmenstein_runtime>  (1062) 
4.6694655418396

>  <fragmenstein_outcome>  (1062) 
too moved

>  <fragmenstein_mode>  (1062) 
expansion

>  <fragmenstein_error>  (1062) 


$$$$
C192-P13
     RDKit          3D

 51 54  0  0  0  0  0  0  0  0999 V2000
   -0.4403    3.2441   24.7567 N   0  0  0  0  0  0  0  0  0  0  0  0
   -1.6466    4.1447   25.5347 S   0  0  0  0  0  0  0  0  0  0  0  0
   -1.0133    4.6320   26.7376 O   0  0  0  0  0  0  0  0  0  0  0  0
   -2.1030    5.0435   24.4982 O   0  0  0  0  0  0  0  0  0  0  0  0
   -2.9258    2.8805   25.8918 C   0  0  0  0  0  0  0  0  0  0  0  0
   -2.5390    1.5725   26.4627 N   0  0  0  0  0  0  0  0  0  0  0  0
   -1.9602    1.7728   27.7756 C   0  0  0  0  0  0  0  0  0  0  0  0
   -0.2187    1.7180   27.8028 S   0  0  0  0  0  4  0  0  0  0  0  0
    0.3747    1.0273   29.3183 C   0  0  0  0  0  0  0  0  0  0  0  0
    0.2716   -0.0122   28.2584 C   0  0  0  0  0  0  0  0  0  0  0  0
   -0.8275   -1.0048   28.0701 C   0  0  0  0  0  0  0  0  0  0  0  0
   -1.6149   -1.3767   29.3166 C   0  0  0  0  0  0  0  0  0  0  0  0
   -0.8221   -2.0964   30.3370 C   0  0  0  0  0  0  0  0  0  0  0  0
   -0.8609   -2.0264   31.7111 C   0  0  0  0  0  0  0  0  0  0  0  0
    0.0021   -2.9985   32.1372 N   0  0  0  0  0  0  0  0  0  0  0  0
    0.4582   -3.6703   31.0274 C   0  0  0  0  0  0  0  0  0  0  0  0
    1.2296   -4.9466   31.1037 C   0  0  0  0  0  0  0  0  0  0  0  0
    0.3909   -6.0323   31.6890 C   0  0  0  0  0  0  0  0  0  0  0  0
   -0.2738   -6.9692   31.0369 N   0  0  0  0  0  0  0  0  0  0  0  0
   -1.0085   -7.6134   31.9829 C   0  0  0  0  0  0  0  0  0  0  0  0
   -1.8682   -8.5990   31.6920 O   0  0  0  0  0  0  0  0  0  0  0  0
   -0.7782   -7.1000   33.2399 C   0  0  0  0  0  0  0  0  0  0  0  0
   -1.2332   -7.3246   34.5542 C   0  0  0  0  0  0  0  0  0  0  0  0
   -0.7323   -6.5871   35.5519 C   0  0  0  0  0  0  0  0  0  0  0  0
    0.2551   -5.5479   35.1930 C   0  0  0  0  0  0  0  0  0  0  0  0
    0.6926   -5.2835   34.0023 N   0  0  0  0  0  0  0  0  0  0  0  0
    0.1504   -6.1010   33.0433 N   0  0  0  0  0  0  0  0  0  0  0  0
    0.0479   -3.0690   29.9364 N   0  0  0  0  0  0  0  0  0  0  0  0
   -0.3419    3.6369   23.8158 H   0  0  0  0  0  0  0  0  0  0  0  0
    0.4147    3.3622   25.3080 H   0  0  0  0  0  0  0  0  0  0  0  0
   -3.4168    2.7127   24.9333 H   0  0  0  0  0  0  0  0  0  0  0  0
   -3.6570    3.3634   26.5394 H   0  0  0  0  0  0  0  0  0  0  0  0
   -1.8490    1.1300   25.8639 H   0  0  0  0  0  0  0  0  0  0  0  0
   -2.3645    1.0447   28.4679 H   0  0  0  0  0  0  0  0  0  0  0  0
   -2.2276    2.7453   28.2000 H   0  0  0  0  0  0  0  0  0  0  0  0
    0.4638    1.8006   26.6413 H   0  0  0  0  0  0  0  0  0  0  0  0
   -0.3031    0.9926   30.1625 H   0  0  0  0  0  0  0  0  0  0  0  0
    1.3720    1.3215   29.6327 H   0  0  0  0  0  0  0  0  0  0  0  0
    1.1875   -0.3449   27.7824 H   0  0  0  0  0  0  0  0  0  0  0  0
   -1.5124   -0.7171   27.2703 H   0  0  0  0  0  0  0  0  0  0  0  0
   -0.3544   -1.9198   27.6958 H   0  0  0  0  0  0  0  0  0  0  0  0
   -2.4044   -2.0609   28.9993 H   0  0  0  0  0  0  0  0  0  0  0  0
   -2.0997   -0.5127   29.7779 H   0  0  0  0  0  0  0  0  0  0  0  0
   -1.4255   -1.4143   32.3983 H   0  0  0  0  0  0  0  0  0  0  0  0
    0.1814   -3.2740   33.0952 H   0  0  0  0  0  0  0  0  0  0  0  0
    2.1442   -4.8005   31.6897 H   0  0  0  0  0  0  0  0  0  0  0  0
    1.5456   -5.2410   30.0959 H   0  0  0  0  0  0  0  0  0  0  0  0
   -2.3214   -8.9107   32.4954 H   0  0  0  0  0  0  0  0  0  0  0  0
   -1.9736   -8.0886   34.7563 H   0  0  0  0  0  0  0  0  0  0  0  0
   -1.0131   -6.7019   36.5889 H   0  0  0  0  0  0  0  0  0  0  0  0
    0.6327   -4.9515   36.0407 H   0  0  0  0  0  0  0  0  0  0  0  0
  1  2  1  0
  2  3  2  0
  2  4  2  0
  2  5  1  0
  5  6  1  0
  6  7  1  0
  7  8  1  0
  8  9  1  0
  9 10  1  0
 10 11  1  0
 11 12  1  0
 12 13  1  0
 13 14  2  0
 14 15  1  0
 15 16  1  0
 16 17  1  0
 17 18  1  0
 18 19  2  0
 19 20  1  0
 20 21  1  0
 20 22  2  0
 22 23  1  0
 23 24  2  0
 24 25  1  0
 25 26  2  0
 26 27  1  0
 16 28  2  0
 10  8  1  0
 28 13  1  0
 27 18  1  0
 27 22  1  0
  1 29  1  0
  1 30  1  0
  5 31  1  0
  5 32  1  0
  6 33  1  0
  7 34  1  0
  7 35  1  0
  8 36  1  0
  9 37  1  0
  9 38  1  0
 10 39  1  0
 11 40  1  0
 11 41  1  0
 12 42  1  0
 12 43  1  0
 14 44  1  0
 15 45  1  0
 17 46  1  0
 17 47  1  0
 21 48  1  0
 23 49  1  0
 24 50  1  0
 25 51  1  0
M  END
>  <Energy>  (1063) 
21.750695607762722

>  <compound_id>  (1063) 
192

>  <target_id>  (1063) 
1

>  <reference_id>  (1063) 
13

>  <inspiration_ids>  (1063) 
[196, 13]

>  <energy_score>  (1063) 
-82.05789661041473

>  <distance_score>  (1063) 
1.3014028249057972

>  <path>  (1063) 
/opt/xchem-fragalysis-2/maxwin/BulkDock/SCRATCH/505736/C192-P13/C192-P13.minimised.mol

>  <scratch_subdir>  (1063) 
/opt/xchem-fragalysis-2/maxwin/BulkDock/SCRATCH/505736/C192-P13

>  <fragmenstein_runtime>  (1063) 
3.1068410873413086

>  <fragmenstein_outcome>  (1063) 
too moved

>  <fragmenstein_mode>  (1063) 
expansion

>  <fragmenstein_error>  (1063) 


$$$$
C194-P196
     RDKit          3D

 32 33  0  0  0  0  0  0  0  0999 V2000
   -0.5547   -6.4734   35.3447 C   0  0  0  0  0  0  0  0  0  0  0  0
   -0.3999   -6.6220   33.8620 C   0  0  0  0  0  0  0  0  0  0  0  0
   -1.0889   -7.5987   33.1831 C   0  0  0  0  0  0  0  0  0  0  0  0
   -0.8039   -7.6971   31.8499 C   0  0  0  0  0  0  0  0  0  0  0  0
   -1.2915   -8.7280   31.1152 O   0  0  0  0  0  0  0  0  0  0  0  0
    0.0219   -6.8999   31.1701 N   0  0  0  0  0  0  0  0  0  0  0  0
    0.5885   -5.9274   31.9036 C   0  0  0  0  0  0  0  0  0  0  0  0
    1.3844   -4.8865   31.1737 C   0  0  0  0  0  0  0  0  0  0  0  0
    0.4744   -3.7635   30.6858 C   0  0  0  0  0  0  0  0  0  0  0  0
    0.0685   -2.8846   31.7997 N   0  0  0  0  0  0  0  0  0  0  0  0
   -1.3810   -2.0340   31.6593 S   0  0  0  0  0  0  0  0  0  0  0  0
   -2.4395   -2.9819   31.3779 O   0  0  0  0  0  0  0  0  0  0  0  0
   -1.4497   -1.1047   32.7631 O   0  0  0  0  0  0  0  0  0  0  0  0
   -1.2485   -1.0386   30.2208 C   0  0  0  0  0  0  0  0  0  0  0  0
   -1.4244   -1.5672   28.9584 C   0  0  0  0  0  0  0  0  0  0  0  0
   -1.0503   -0.3924   27.7883 S   0  0  0  0  0  0  0  0  0  0  0  0
   -0.7248    0.7417   29.0196 C   0  0  0  0  0  0  0  0  0  0  0  0
   -0.3342    1.9817   28.7440 O   0  0  0  0  0  0  0  0  0  0  0  0
   -0.8351    0.2998   30.2505 N   0  0  0  0  0  0  0  0  0  0  0  0
    0.4568   -5.7896   33.2356 N   0  0  0  0  0  0  0  0  0  0  0  0
   -0.1847   -7.3693   35.8532 H   0  0  0  0  0  0  0  0  0  0  0  0
    0.0126   -5.6120   35.7112 H   0  0  0  0  0  0  0  0  0  0  0  0
   -1.6054   -6.3229   35.6060 H   0  0  0  0  0  0  0  0  0  0  0  0
   -1.7644   -8.2811   33.6749 H   0  0  0  0  0  0  0  0  0  0  0  0
   -0.5783   -8.8128   30.4524 H   0  0  0  0  0  0  0  0  0  0  0  0
    1.8743   -5.3584   30.3138 H   0  0  0  0  0  0  0  0  0  0  0  0
    2.1761   -4.4978   31.8247 H   0  0  0  0  0  0  0  0  0  0  0  0
   -0.4003   -4.1844   30.1788 H   0  0  0  0  0  0  0  0  0  0  0  0
    1.0289   -3.1527   29.9646 H   0  0  0  0  0  0  0  0  0  0  0  0
    0.7947   -2.3077   32.2258 H   0  0  0  0  0  0  0  0  0  0  0  0
   -1.7241   -2.5678   28.6822 H   0  0  0  0  0  0  0  0  0  0  0  0
   -0.0364    1.9110   27.8185 H   0  0  0  0  0  0  0  0  0  0  0  0
  1  2  1  0
  2  3  2  0
  3  4  1  0
  4  5  1  0
  4  6  2  0
  6  7  1  0
  7  8  1  0
  8  9  1  0
  9 10  1  0
 10 11  1  0
 11 12  2  0
 11 13  2  0
 11 14  1  0
 14 15  2  0
 15 16  1  0
 16 17  1  0
 17 18  1  0
 17 19  2  0
  7 20  2  0
 20  2  1  0
 19 14  1  0
  1 21  1  0
  1 22  1  0
  1 23  1  0
  3 24  1  0
  5 25  1  0
  8 26  1  0
  8 27  1  0
  9 28  1  0
  9 29  1  0
 10 30  1  0
 15 31  1  0
 18 32  1  0
M  END
>  <Energy>  (1064) 
-73.130737034679413

>  <compound_id>  (1064) 
194

>  <target_id>  (1064) 
1

>  <reference_id>  (1064) 
196

>  <inspiration_ids>  (1064) 
[196, 53]

>  <energy_score>  (1064) 
-119.50534244626803

>  <distance_score>  (1064) 
1.0028651142977727

>  <path>  (1064) 
/opt/xchem-fragalysis-2/maxwin/BulkDock/SCRATCH/505736/C194-P196/C194-P196.minimised.mol

>  <scratch_subdir>  (1064) 
/opt/xchem-fragalysis-2/maxwin/BulkDock/SCRATCH/505736/C194-P196

>  <fragmenstein_runtime>  (1064) 
1.699537754058838

>  <fragmenstein_outcome>  (1064) 
too moved

>  <fragmenstein_mode>  (1064) 
expansion

>  <fragmenstein_error>  (1064) 


$$$$
C194-P53
     RDKit          3D

 32 33  0  0  0  0  0  0  0  0999 V2000
   -0.3607   -6.1882   35.1934 C   0  0  0  0  0  0  0  0  0  0  0  0
   -0.2960   -6.4042   33.7123 C   0  0  0  0  0  0  0  0  0  0  0  0
   -0.9824   -7.4400   33.1252 C   0  0  0  0  0  0  0  0  0  0  0  0
   -0.7647   -7.6019   31.7857 C   0  0  0  0  0  0  0  0  0  0  0  0
   -1.2845   -8.6668   31.1238 O   0  0  0  0  0  0  0  0  0  0  0  0
   -0.0087   -6.8133   31.0195 N   0  0  0  0  0  0  0  0  0  0  0  0
    0.5711   -5.7881   31.6687 C   0  0  0  0  0  0  0  0  0  0  0  0
    1.3387   -4.7895   30.8501 C   0  0  0  0  0  0  0  0  0  0  0  0
    0.4375   -3.6622   30.3431 C   0  0  0  0  0  0  0  0  0  0  0  0
    0.1378   -2.6976   31.4171 N   0  0  0  0  0  0  0  0  0  0  0  0
   -1.3017   -1.8253   31.3409 S   0  0  0  0  0  0  0  0  0  0  0  0
   -2.3799   -2.7687   31.1205 O   0  0  0  0  0  0  0  0  0  0  0  0
   -1.3118   -0.9199   32.4681 O   0  0  0  0  0  0  0  0  0  0  0  0
   -1.2662   -0.7845   29.9149 C   0  0  0  0  0  0  0  0  0  0  0  0
   -1.6854   -1.2125   28.6720 C   0  0  0  0  0  0  0  0  0  0  0  0
   -1.5862    0.0700   27.5391 S   0  0  0  0  0  0  0  0  0  0  0  0
   -0.9694    1.0916   28.7565 C   0  0  0  0  0  0  0  0  0  0  0  0
   -0.7099    2.3769   28.5185 O   0  0  0  0  0  0  0  0  0  0  0  0
   -0.7850    0.5377   29.9372 N   0  0  0  0  0  0  0  0  0  0  0  0
    0.4966   -5.5802   32.9968 N   0  0  0  0  0  0  0  0  0  0  0  0
    0.1987   -6.9744   35.7098 H   0  0  0  0  0  0  0  0  0  0  0  0
    0.0735   -5.2204   35.4639 H   0  0  0  0  0  0  0  0  0  0  0  0
   -1.3958   -6.2021   35.5426 H   0  0  0  0  0  0  0  0  0  0  0  0
   -1.6167   -8.1074   33.6851 H   0  0  0  0  0  0  0  0  0  0  0  0
   -0.6578   -8.7100   30.3754 H   0  0  0  0  0  0  0  0  0  0  0  0
    1.7789   -5.3121   29.9922 H   0  0  0  0  0  0  0  0  0  0  0  0
    2.1704   -4.3887   31.4417 H   0  0  0  0  0  0  0  0  0  0  0  0
   -0.4798   -4.0764   29.9148 H   0  0  0  0  0  0  0  0  0  0  0  0
    0.9643   -3.1186   29.5505 H   0  0  0  0  0  0  0  0  0  0  0  0
    0.9077   -2.1133   31.7451 H   0  0  0  0  0  0  0  0  0  0  0  0
   -2.0714   -2.1774   28.3867 H   0  0  0  0  0  0  0  0  0  0  0  0
   -1.1495    2.5614   27.6721 H   0  0  0  0  0  0  0  0  0  0  0  0
  1  2  1  0
  2  3  2  0
  3  4  1  0
  4  5  1  0
  4  6  2  0
  6  7  1  0
  7  8  1  0
  8  9  1  0
  9 10  1  0
 10 11  1  0
 11 12  2  0
 11 13  2  0
 11 14  1  0
 14 15  2  0
 15 16  1  0
 16 17  1  0
 17 18  1  0
 17 19  2  0
  7 20  2  0
 20  2  1  0
 19 14  1  0
  1 21  1  0
  1 22  1  0
  1 23  1  0
  3 24  1  0
  5 25  1  0
  8 26  1  0
  8 27  1  0
  9 28  1  0
  9 29  1  0
 10 30  1  0
 15 31  1  0
 18 32  1  0
M  END
>  <Energy>  (1065) 
-75.032614047917647

>  <compound_id>  (1065) 
194

>  <target_id>  (1065) 
1

>  <reference_id>  (1065) 
53

>  <inspiration_ids>  (1065) 
[196, 53]

>  <energy_score>  (1065) 
-121.40721945950708

>  <distance_score>  (1065) 
0.9154918905329792

>  <path>  (1065) 
/opt/xchem-fragalysis-2/maxwin/BulkDock/SCRATCH/505736/C194-P53/C194-P53.minimised.mol

>  <scratch_subdir>  (1065) 
/opt/xchem-fragalysis-2/maxwin/BulkDock/SCRATCH/505736/C194-P53

>  <fragmenstein_runtime>  (1065) 
1.986905574798584

>  <fragmenstein_outcome>  (1065) 
acceptable

>  <fragmenstein_mode>  (1065) 
expansion

>  <fragmenstein_error>  (1065) 


$$$$
C194-P196
     RDKit          2D

  0  0  0  0  0  0  0  0  0  0999 V2000
M  END
>  <compound_id>  (1066) 
194

>  <target_id>  (1066) 
1

>  <reference_id>  (1066) 
196

>  <inspiration_ids>  (1066) 
[196, 56]

>  <energy_score>  (1066) 
nan

>  <distance_score>  (1066) 
nan

>  <path>  (1066) 
/opt/xchem-fragalysis-2/maxwin/BulkDock/SCRATCH/505736/C194-P196/C194-P196.minimised.mol

>  <scratch_subdir>  (1066) 
/opt/xchem-fragalysis-2/maxwin/BulkDock/SCRATCH/505736/C194-P196

>  <fragmenstein_runtime>  (1066) 
0.22857403755187988

>  <fragmenstein_outcome>  (1066) 
too distant

>  <fragmenstein_mode>  (1066) 
expansion

>  <fragmenstein_error>  (1066) 
DistanceError: hit0+hit1

$$$$
C3061-P196
     RDKit          3D

 46 48  0  0  0  0  0  0  0  0999 V2000
    3.0624   -2.0129   33.2857 C   0  0  0  0  0  0  0  0  0  0  0  0
    2.5706   -2.1443   34.7381 C   0  0  0  0  0  0  0  0  0  0  0  0
    3.5618   -1.5408   35.7171 C   0  0  0  0  0  0  0  0  0  0  0  0
    4.5542   -2.6637   35.9486 C   0  0  0  0  0  0  0  0  0  0  0  0
    3.8601   -3.8891   35.7026 O   0  0  0  0  0  0  0  0  0  0  0  0
    2.5120   -3.5661   35.3248 C   0  0  0  0  0  0  0  0  0  0  0  0
    2.0161   -4.6294   34.4164 C   0  0  0  0  0  0  0  0  0  0  0  0
    0.9377   -5.4356   34.5781 C   0  0  0  0  0  0  0  0  0  0  0  0
    0.4621   -6.2170   33.4236 C   0  0  0  0  0  0  0  0  0  0  0  0
   -0.5598   -7.1327   33.3580 C   0  0  0  0  0  0  0  0  0  0  0  0
   -0.9023   -7.5248   32.0717 C   0  0  0  0  0  0  0  0  0  0  0  0
   -1.8825   -8.4354   31.8241 O   0  0  0  0  0  0  0  0  0  0  0  0
   -0.3653   -7.0314   30.9410 N   0  0  0  0  0  0  0  0  0  0  0  0
    0.6138   -6.1546   31.1249 C   0  0  0  0  0  0  0  0  0  0  0  0
    1.1009   -5.2485   30.0454 C   0  0  0  0  0  0  0  0  0  0  0  0
    0.1893   -4.0268   29.9837 C   0  0  0  0  0  0  0  0  0  0  0  0
    0.1887   -3.2532   31.2590 N   0  0  0  0  0  0  0  0  0  0  0  0
   -1.1584   -2.2729   31.5586 S   0  0  0  0  0  0  0  0  0  0  0  0
   -2.3466   -3.0835   31.3809 O   0  0  0  0  0  0  0  0  0  0  0  0
   -0.9204   -1.5384   32.7798 O   0  0  0  0  0  0  0  0  0  0  0  0
   -1.1838   -1.0927   30.2734 C   0  0  0  0  0  0  0  0  0  0  0  0
   -1.5509   -1.4327   28.9880 C   0  0  0  0  0  0  0  0  0  0  0  0
   -1.2222   -0.1456   27.9318 S   0  0  0  0  0  0  0  0  0  0  0  0
   -0.6474    0.7832   29.2467 C   0  0  0  0  0  0  0  0  0  0  0  0
   -0.6776    0.1986   30.4249 N   0  0  0  0  0  0  0  0  0  0  0  0
    1.0684   -5.7930   32.3126 N   0  0  0  0  0  0  0  0  0  0  0  0
    2.3400   -2.4399   32.5883 H   0  0  0  0  0  0  0  0  0  0  0  0
    4.0209   -2.5190   33.1314 H   0  0  0  0  0  0  0  0  0  0  0  0
    3.1918   -0.9578   33.0225 H   0  0  0  0  0  0  0  0  0  0  0  0
    1.5925   -1.6549   34.8106 H   0  0  0  0  0  0  0  0  0  0  0  0
    4.0413   -0.6223   35.3662 H   0  0  0  0  0  0  0  0  0  0  0  0
    3.0511   -1.3050   36.6594 H   0  0  0  0  0  0  0  0  0  0  0  0
    5.3961   -2.6064   35.2512 H   0  0  0  0  0  0  0  0  0  0  0  0
    4.9496   -2.6621   36.9686 H   0  0  0  0  0  0  0  0  0  0  0  0
    1.9176   -3.5558   36.2486 H   0  0  0  0  0  0  0  0  0  0  0  0
    2.6178   -4.7010   33.5119 H   0  0  0  0  0  0  0  0  0  0  0  0
    0.3259   -5.4221   35.4731 H   0  0  0  0  0  0  0  0  0  0  0  0
   -1.0677   -7.4978   34.2398 H   0  0  0  0  0  0  0  0  0  0  0  0
   -2.2166   -8.7830   32.6694 H   0  0  0  0  0  0  0  0  0  0  0  0
    2.1300   -4.9350   30.2634 H   0  0  0  0  0  0  0  0  0  0  0  0
    1.1381   -5.7769   29.0969 H   0  0  0  0  0  0  0  0  0  0  0  0
    0.5438   -3.3678   29.1844 H   0  0  0  0  0  0  0  0  0  0  0  0
   -0.8247   -4.3472   29.7351 H   0  0  0  0  0  0  0  0  0  0  0  0
    0.3896   -3.8166   32.0930 H   0  0  0  0  0  0  0  0  0  0  0  0
   -1.9454   -2.3691   28.6241 H   0  0  0  0  0  0  0  0  0  0  0  0
   -0.2771    1.7908   29.1029 H   0  0  0  0  0  0  0  0  0  0  0  0
  1  2  1  0
  2  3  1  0
  3  4  1  0
  4  5  1  0
  5  6  1  0
  6  7  1  0
  7  8  2  3
  8  9  1  0
  9 10  2  0
 10 11  1  0
 11 12  1  0
 11 13  2  0
 13 14  1  0
 14 15  1  0
 15 16  1  0
 16 17  1  0
 17 18  1  0
 18 19  2  0
 18 20  2  0
 18 21  1  0
 21 22  2  0
 22 23  1  0
 23 24  1  0
 24 25  2  0
 14 26  2  0
  6  2  1  0
 26  9  1  0
 25 21  1  0
  1 27  1  0
  1 28  1  0
  1 29  1  0
  2 30  1  0
  3 31  1  0
  3 32  1  0
  4 33  1  0
  4 34  1  0
  6 35  1  0
  7 36  1  0
  8 37  1  0
 10 38  1  0
 12 39  1  0
 15 40  1  0
 15 41  1  0
 16 42  1  0
 16 43  1  0
 17 44  1  0
 22 45  1  0
 24 46  1  0
M  END
>  <Energy>  (1067) 
-27.281026357135303

>  <compound_id>  (1067) 
3061

>  <target_id>  (1067) 
1

>  <reference_id>  (1067) 
196

>  <inspiration_ids>  (1067) 
[196, 129]

>  <energy_score>  (1067) 
-110.79099818011645

>  <distance_score>  (1067) 
1.3057048433760488

>  <path>  (1067) 
/opt/xchem-fragalysis-2/maxwin/BulkDock/SCRATCH/505736/C3061-P196/C3061-P196.minimised.mol

>  <scratch_subdir>  (1067) 
/opt/xchem-fragalysis-2/maxwin/BulkDock/SCRATCH/505736/C3061-P196

>  <fragmenstein_runtime>  (1067) 
3.067281723022461

>  <fragmenstein_outcome>  (1067) 
too moved

>  <fragmenstein_mode>  (1067) 
expansion

>  <fragmenstein_error>  (1067) 


$$$$
C3061-P129
     RDKit          3D

 46 48  0  0  0  0  0  0  0  0999 V2000
    3.0530   -1.9839   33.2790 C   0  0  0  0  0  0  0  0  0  0  0  0
    2.5797   -2.1225   34.7369 C   0  0  0  0  0  0  0  0  0  0  0  0
    3.5880   -1.5364   35.7089 C   0  0  0  0  0  0  0  0  0  0  0  0
    4.5726   -2.6701   35.9205 C   0  0  0  0  0  0  0  0  0  0  0  0
    3.8665   -3.8872   35.6666 O   0  0  0  0  0  0  0  0  0  0  0  0
    2.5163   -3.5489   35.3107 C   0  0  0  0  0  0  0  0  0  0  0  0
    1.9996   -4.5968   34.3966 C   0  0  0  0  0  0  0  0  0  0  0  0
    0.9115   -5.3885   34.5608 C   0  0  0  0  0  0  0  0  0  0  0  0
    0.4193   -6.1550   33.4046 C   0  0  0  0  0  0  0  0  0  0  0  0
   -0.5772   -7.0990   33.3504 C   0  0  0  0  0  0  0  0  0  0  0  0
   -0.9187   -7.5055   32.0686 C   0  0  0  0  0  0  0  0  0  0  0  0
   -1.8730   -8.4493   31.8365 O   0  0  0  0  0  0  0  0  0  0  0  0
   -0.3963   -7.0077   30.9312 N   0  0  0  0  0  0  0  0  0  0  0  0
    0.5528   -6.0955   31.1037 C   0  0  0  0  0  0  0  0  0  0  0  0
    1.0563   -5.2224   30.0040 C   0  0  0  0  0  0  0  0  0  0  0  0
    0.1787   -3.9778   29.8958 C   0  0  0  0  0  0  0  0  0  0  0  0
    0.1871   -3.1748   31.1482 N   0  0  0  0  0  0  0  0  0  0  0  0
   -1.1413   -2.1594   31.4108 S   0  0  0  0  0  0  0  0  0  0  0  0
   -2.3411   -2.9446   31.2061 O   0  0  0  0  0  0  0  0  0  0  0  0
   -0.9142   -1.4518   32.6509 O   0  0  0  0  0  0  0  0  0  0  0  0
   -1.1100   -0.9520   30.1447 C   0  0  0  0  0  0  0  0  0  0  0  0
   -1.4775   -1.2174   28.8394 C   0  0  0  0  0  0  0  0  0  0  0  0
   -1.1615    0.1477   27.8535 S   0  0  0  0  0  0  0  0  0  0  0  0
   -0.5661    0.9801   29.2208 C   0  0  0  0  0  0  0  0  0  0  0  0
   -0.5770    0.3206   30.3583 N   0  0  0  0  0  0  0  0  0  0  0  0
    0.9930   -5.7032   32.2866 N   0  0  0  0  0  0  0  0  0  0  0  0
    2.3148   -2.3961   32.5888 H   0  0  0  0  0  0  0  0  0  0  0  0
    4.0032   -2.4995   33.1068 H   0  0  0  0  0  0  0  0  0  0  0  0
    3.1908   -0.9279   33.0232 H   0  0  0  0  0  0  0  0  0  0  0  0
    1.6068   -1.6255   34.8263 H   0  0  0  0  0  0  0  0  0  0  0  0
    4.0719   -0.6196   35.3597 H   0  0  0  0  0  0  0  0  0  0  0  0
    3.0905   -1.3033   36.6590 H   0  0  0  0  0  0  0  0  0  0  0  0
    5.4093   -2.6122   35.2171 H   0  0  0  0  0  0  0  0  0  0  0  0
    4.9760   -2.6829   36.9373 H   0  0  0  0  0  0  0  0  0  0  0  0
    1.9342   -3.5432   36.2423 H   0  0  0  0  0  0  0  0  0  0  0  0
    2.5914   -4.6690   33.4857 H   0  0  0  0  0  0  0  0  0  0  0  0
    0.3086   -5.3768   35.4617 H   0  0  0  0  0  0  0  0  0  0  0  0
   -1.0624   -7.4798   34.2383 H   0  0  0  0  0  0  0  0  0  0  0  0
   -2.2114   -8.7805   32.6866 H   0  0  0  0  0  0  0  0  0  0  0  0
    2.0920   -4.9274   30.2174 H   0  0  0  0  0  0  0  0  0  0  0  0
    1.0865   -5.7761   29.0710 H   0  0  0  0  0  0  0  0  0  0  0  0
    0.5586   -3.3482   29.0841 H   0  0  0  0  0  0  0  0  0  0  0  0
   -0.8390   -4.2745   29.6377 H   0  0  0  0  0  0  0  0  0  0  0  0
    0.3631   -3.7211   31.9999 H   0  0  0  0  0  0  0  0  0  0  0  0
   -1.8917   -2.1212   28.4155 H   0  0  0  0  0  0  0  0  0  0  0  0
   -0.2031    1.9976   29.1432 H   0  0  0  0  0  0  0  0  0  0  0  0
  1  2  1  0
  2  3  1  0
  3  4  1  0
  4  5  1  0
  5  6  1  0
  6  7  1  0
  7  8  2  3
  8  9  1  0
  9 10  2  0
 10 11  1  0
 11 12  1  0
 11 13  2  0
 13 14  1  0
 14 15  1  0
 15 16  1  0
 16 17  1  0
 17 18  1  0
 18 19  2  0
 18 20  2  0
 18 21  1  0
 21 22  2  0
 22 23  1  0
 23 24  1  0
 24 25  2  0
 14 26  2  0
  6  2  1  0
 26  9  1  0
 25 21  1  0
  1 27  1  0
  1 28  1  0
  1 29  1  0
  2 30  1  0
  3 31  1  0
  3 32  1  0
  4 33  1  0
  4 34  1  0
  6 35  1  0
  7 36  1  0
  8 37  1  0
 10 38  1  0
 12 39  1  0
 15 40  1  0
 15 41  1  0
 16 42  1  0
 16 43  1  0
 17 44  1  0
 22 45  1  0
 24 46  1  0
M  END
>  <Energy>  (1068) 
-29.482916390336218

>  <compound_id>  (1068) 
3061

>  <target_id>  (1068) 
1

>  <reference_id>  (1068) 
129

>  <inspiration_ids>  (1068) 
[196, 129]

>  <energy_score>  (1068) 
-112.99288821331805

>  <distance_score>  (1068) 
1.3145373791096153

>  <path>  (1068) 
/opt/xchem-fragalysis-2/maxwin/BulkDock/SCRATCH/505736/C3061-P129/C3061-P129.minimised.mol

>  <scratch_subdir>  (1068) 
/opt/xchem-fragalysis-2/maxwin/BulkDock/SCRATCH/505736/C3061-P129

>  <fragmenstein_runtime>  (1068) 
2.9638397693634033

>  <fragmenstein_outcome>  (1068) 
too moved

>  <fragmenstein_mode>  (1068) 
expansion

>  <fragmenstein_error>  (1068) 


$$$$
C3079-P196
     RDKit          3D

 57 59  0  0  0  0  0  0  0  0999 V2000
   -0.4189   -6.6393   35.6645 C   0  0  0  0  0  0  0  0  0  0  0  0
   -0.3742   -6.8448   34.1824 C   0  0  0  0  0  0  0  0  0  0  0  0
   -1.2877   -7.6642   33.5617 C   0  0  0  0  0  0  0  0  0  0  0  0
   -1.1786   -7.7742   32.1978 C   0  0  0  0  0  0  0  0  0  0  0  0
   -2.0413   -8.5378   31.4724 O   0  0  0  0  0  0  0  0  0  0  0  0
   -0.2650   -7.1357   31.4640 N   0  0  0  0  0  0  0  0  0  0  0  0
    0.5743   -6.3517   32.1538 C   0  0  0  0  0  0  0  0  0  0  0  0
    1.4633   -5.4347   31.3798 C   0  0  0  0  0  0  0  0  0  0  0  0
    0.6457   -4.2381   30.9579 C   0  0  0  0  0  0  0  0  0  0  0  0
    0.2129   -3.4103   32.1200 N   0  0  0  0  0  0  0  0  0  0  0  0
   -1.1791   -2.4709   31.8493 S   0  0  0  0  0  0  0  0  0  0  0  0
   -2.2599   -3.3976   31.5805 O   0  0  0  0  0  0  0  0  0  0  0  0
   -1.2654   -1.5090   32.9259 O   0  0  0  0  0  0  0  0  0  0  0  0
   -0.6754   -1.6415   30.3207 C   0  0  0  0  0  0  0  0  0  0  0  0
   -1.8712   -1.0063   29.6569 C   0  0  0  0  0  0  0  0  0  0  0  0
   -1.1803    0.3332   28.8140 S   0  0  0  0  0  4  0  0  0  0  0  0
   -0.3700   -0.4336   27.4517 C   0  0  0  0  0  0  0  0  0  0  0  0
    0.0279    0.6178   30.0556 C   0  0  0  0  0  0  0  0  0  0  0  0
   -0.5275    1.1362   31.2289 O   0  0  0  0  0  0  0  0  0  0  0  0
    1.1348    1.4151   29.6060 N   0  0  0  0  0  0  0  0  0  0  0  0
    2.2913    1.4446   30.5177 C   0  0  0  0  0  0  0  0  0  0  0  0
    3.2189    2.6260   30.2514 C   0  0  0  0  0  0  0  0  0  0  0  0
    2.4947    3.9377   30.5351 C   0  0  0  0  0  0  0  0  0  0  0  0
    3.1531    4.9822   29.8205 O   0  0  0  0  0  0  0  0  0  0  0  0
    1.0131    3.8723   30.1673 C   0  0  0  0  0  0  0  0  0  0  0  0
    0.7278    2.7569   29.1583 C   0  0  0  0  0  0  0  0  0  0  0  0
    0.4918   -0.6957   30.4136 N   0  0  0  0  0  0  0  0  0  0  0  0
    0.5625   -6.1764   33.4887 N   0  0  0  0  0  0  0  0  0  0  0  0
   -1.3353   -6.1110   35.9437 H   0  0  0  0  0  0  0  0  0  0  0  0
   -0.3858   -7.6023   36.1838 H   0  0  0  0  0  0  0  0  0  0  0  0
    0.4356   -6.0437   36.0013 H   0  0  0  0  0  0  0  0  0  0  0  0
   -2.0342   -8.1935   34.1341 H   0  0  0  0  0  0  0  0  0  0  0  0
   -2.6993   -8.9374   32.0765 H   0  0  0  0  0  0  0  0  0  0  0  0
    2.3231   -5.1340   31.9888 H   0  0  0  0  0  0  0  0  0  0  0  0
    1.8420   -5.9426   30.4888 H   0  0  0  0  0  0  0  0  0  0  0  0
    1.2781   -3.6175   30.3140 H   0  0  0  0  0  0  0  0  0  0  0  0
   -0.2210   -4.5728   30.3760 H   0  0  0  0  0  0  0  0  0  0  0  0
    0.0802   -3.9468   32.9872 H   0  0  0  0  0  0  0  0  0  0  0  0
   -0.3760   -2.4456   29.6435 H   0  0  0  0  0  0  0  0  0  0  0  0
   -2.3049   -1.6759   28.9157 H   0  0  0  0  0  0  0  0  0  0  0  0
   -2.6059   -0.6140   30.3616 H   0  0  0  0  0  0  0  0  0  0  0  0
   -2.0245    1.3568   28.5541 H   0  0  0  0  0  0  0  0  0  0  0  0
    0.4739    0.1863   27.1615 H   0  0  0  0  0  0  0  0  0  0  0  0
   -1.1133   -0.5577   26.6662 H   0  0  0  0  0  0  0  0  0  0  0  0
    0.0056   -1.4221   27.7143 H   0  0  0  0  0  0  0  0  0  0  0  0
   -0.1303    0.5659   31.9100 H   0  0  0  0  0  0  0  0  0  0  0  0
    2.8713    0.5222   30.3959 H   0  0  0  0  0  0  0  0  0  0  0  0
    1.9764    1.4927   31.5684 H   0  0  0  0  0  0  0  0  0  0  0  0
    3.5888    2.5976   29.2178 H   0  0  0  0  0  0  0  0  0  0  0  0
    4.1116    2.5582   30.8850 H   0  0  0  0  0  0  0  0  0  0  0  0
    2.5834    4.1835   31.6000 H   0  0  0  0  0  0  0  0  0  0  0  0
    2.6576    5.8036   29.9817 H   0  0  0  0  0  0  0  0  0  0  0  0
    0.6675    4.8291   29.7595 H   0  0  0  0  0  0  0  0  0  0  0  0
    0.4288    3.6811   31.0756 H   0  0  0  0  0  0  0  0  0  0  0  0
    1.2935    2.9760   28.2454 H   0  0  0  0  0  0  0  0  0  0  0  0
   -0.3280    2.8160   28.8816 H   0  0  0  0  0  0  0  0  0  0  0  0
    1.1492   -0.9352   29.6747 H   0  0  0  0  0  0  0  0  0  0  0  0
  1  2  1  0
  2  3  2  0
  3  4  1  0
  4  5  1  0
  4  6  2  0
  6  7  1  0
  7  8  1  0
  8  9  1  0
  9 10  1  0
 10 11  1  0
 11 12  2  0
 11 13  2  0
 11 14  1  0
 14 15  1  0
 15 16  1  0
 16 17  1  0
 16 18  1  0
 18 19  1  0
 18 20  1  0
 20 21  1  0
 21 22  1  0
 22 23  1  0
 23 24  1  0
 23 25  1  0
 25 26  1  0
 18 27  1  0
  7 28  2  0
 28  2  1  0
 27 14  1  0
 26 20  1  0
  1 29  1  0
  1 30  1  0
  1 31  1  0
  3 32  1  0
  5 33  1  0
  8 34  1  0
  8 35  1  0
  9 36  1  0
  9 37  1  0
 10 38  1  0
 14 39  1  0
 15 40  1  0
 15 41  1  0
 16 42  1  0
 17 43  1  0
 17 44  1  0
 17 45  1  0
 19 46  1  0
 21 47  1  0
 21 48  1  0
 22 49  1  0
 22 50  1  0
 23 51  1  0
 24 52  1  0
 25 53  1  0
 25 54  1  0
 26 55  1  0
 26 56  1  0
 27 57  1  0
M  END
>  <Energy>  (1069) 
-180.65001500763825

>  <compound_id>  (1069) 
3079

>  <target_id>  (1069) 
1

>  <reference_id>  (1069) 
196

>  <inspiration_ids>  (1069) 
[196, 130]

>  <energy_score>  (1069) 
-88.81297266039505

>  <distance_score>  (1069) 
1.196732418630742

>  <path>  (1069) 
/opt/xchem-fragalysis-2/maxwin/BulkDock/SCRATCH/505736/C3079-P196/C3079-P196.minimised.mol

>  <scratch_subdir>  (1069) 
/opt/xchem-fragalysis-2/maxwin/BulkDock/SCRATCH/505736/C3079-P196

>  <fragmenstein_runtime>  (1069) 
4.561890125274658

>  <fragmenstein_outcome>  (1069) 
too moved

>  <fragmenstein_mode>  (1069) 
expansion

>  <fragmenstein_error>  (1069) 


$$$$
C3079-P130
     RDKit          3D

 57 59  0  0  0  0  0  0  0  0999 V2000
   -0.4151   -6.5140   35.5447 C   0  0  0  0  0  0  0  0  0  0  0  0
   -0.3938   -6.7143   34.0606 C   0  0  0  0  0  0  0  0  0  0  0  0
   -1.2498   -7.6100   33.4602 C   0  0  0  0  0  0  0  0  0  0  0  0
   -1.1620   -7.7110   32.0940 C   0  0  0  0  0  0  0  0  0  0  0  0
   -1.9663   -8.5501   31.3838 O   0  0  0  0  0  0  0  0  0  0  0  0
   -0.3258   -6.9910   31.3430 N   0  0  0  0  0  0  0  0  0  0  0  0
    0.4434   -6.1181   32.0100 C   0  0  0  0  0  0  0  0  0  0  0  0
    1.2083   -5.1151   31.2057 C   0  0  0  0  0  0  0  0  0  0  0  0
    0.2657   -3.9876   30.8082 C   0  0  0  0  0  0  0  0  0  0  0  0
   -0.0785   -3.1081   31.9593 N   0  0  0  0  0  0  0  0  0  0  0  0
   -1.3881   -2.0298   31.7472 S   0  0  0  0  0  0  0  0  0  0  0  0
   -2.5150   -2.8532   31.3578 O   0  0  0  0  0  0  0  0  0  0  0  0
   -1.4318   -1.2312   32.9528 O   0  0  0  0  0  0  0  0  0  0  0  0
   -0.7741   -1.0072   30.3710 C   0  0  0  0  0  0  0  0  0  0  0  0
   -1.2202   -1.5737   29.0430 C   0  0  0  0  0  0  0  0  0  0  0  0
   -0.3587   -0.5124   27.9682 S   0  0  0  0  0  4  0  0  0  0  0  0
    1.3374   -1.0538   28.0776 C   0  0  0  0  0  0  0  0  0  0  0  0
   -0.5756    0.9514   28.9517 C   0  0  0  0  0  0  0  0  0  0  0  0
   -1.6523    1.6742   28.4404 O   0  0  0  0  0  0  0  0  0  0  0  0
    0.6171    1.7732   29.0145 N   0  0  0  0  0  0  0  0  0  0  0  0
    0.5771    3.0166   29.7987 C   0  0  0  0  0  0  0  0  0  0  0  0
   -0.0580    4.2307   29.1120 C   0  0  0  0  0  0  0  0  0  0  0  0
    0.5186    4.5220   27.7398 C   0  0  0  0  0  0  0  0  0  0  0  0
    1.8523    5.0190   27.8646 O   0  0  0  0  0  0  0  0  0  0  0  0
    0.5258    3.2566   26.9092 C   0  0  0  0  0  0  0  0  0  0  0  0
    1.1752    2.1127   27.6842 C   0  0  0  0  0  0  0  0  0  0  0  0
   -0.9833    0.4889   30.2856 N   0  0  0  0  0  0  0  0  0  0  0  0
    0.4565   -5.9573   33.3455 N   0  0  0  0  0  0  0  0  0  0  0  0
   -1.3456   -6.0234   35.8441 H   0  0  0  0  0  0  0  0  0  0  0  0
   -0.3318   -7.4758   36.0609 H   0  0  0  0  0  0  0  0  0  0  0  0
    0.4223   -5.8856   35.8646 H   0  0  0  0  0  0  0  0  0  0  0  0
   -1.9441   -8.1934   34.0442 H   0  0  0  0  0  0  0  0  0  0  0  0
   -2.6398   -8.9369   31.9758 H   0  0  0  0  0  0  0  0  0  0  0  0
    2.0605   -4.7358   31.7808 H   0  0  0  0  0  0  0  0  0  0  0  0
    1.6051   -5.6041   30.3087 H   0  0  0  0  0  0  0  0  0  0  0  0
    0.7860   -3.3787   30.0648 H   0  0  0  0  0  0  0  0  0  0  0  0
   -0.6436   -4.3942   30.3564 H   0  0  0  0  0  0  0  0  0  0  0  0
   -0.2133   -3.6097   32.8472 H   0  0  0  0  0  0  0  0  0  0  0  0
    0.3111   -1.1062   30.5004 H   0  0  0  0  0  0  0  0  0  0  0  0
   -0.9290   -2.6032   28.8443 H   0  0  0  0  0  0  0  0  0  0  0  0
   -2.2870   -1.4549   28.8534 H   0  0  0  0  0  0  0  0  0  0  0  0
   -0.9320   -0.4235   26.7508 H   0  0  0  0  0  0  0  0  0  0  0  0
    1.7999   -0.6788   28.9909 H   0  0  0  0  0  0  0  0  0  0  0  0
    1.9035   -0.6887   27.2236 H   0  0  0  0  0  0  0  0  0  0  0  0
    1.3540   -2.1447   28.0875 H   0  0  0  0  0  0  0  0  0  0  0  0
   -2.3440    1.5241   29.0999 H   0  0  0  0  0  0  0  0  0  0  0  0
    1.6177    3.2764   30.0395 H   0  0  0  0  0  0  0  0  0  0  0  0
    0.1157    2.8681   30.7792 H   0  0  0  0  0  0  0  0  0  0  0  0
    0.0984    5.1029   29.7557 H   0  0  0  0  0  0  0  0  0  0  0  0
   -1.1326    4.0679   28.9966 H   0  0  0  0  0  0  0  0  0  0  0  0
   -0.0688    5.2957   27.2331 H   0  0  0  0  0  0  0  0  0  0  0  0
    1.7875    5.8813   28.3111 H   0  0  0  0  0  0  0  0  0  0  0  0
    1.0946    3.4209   25.9859 H   0  0  0  0  0  0  0  0  0  0  0  0
   -0.4941    2.9868   26.6149 H   0  0  0  0  0  0  0  0  0  0  0  0
    2.2351    2.3603   27.8395 H   0  0  0  0  0  0  0  0  0  0  0  0
    1.2137    1.2616   27.0141 H   0  0  0  0  0  0  0  0  0  0  0  0
   -0.3220    0.8971   30.9411 H   0  0  0  0  0  0  0  0  0  0  0  0
  1  2  1  0
  2  3  2  0
  3  4  1  0
  4  5  1  0
  4  6  2  0
  6  7  1  0
  7  8  1  0
  8  9  1  0
  9 10  1  0
 10 11  1  0
 11 12  2  0
 11 13  2  0
 11 14  1  0
 14 15  1  0
 15 16  1  0
 16 17  1  0
 16 18  1  0
 18 19  1  0
 18 20  1  0
 20 21  1  0
 21 22  1  0
 22 23  1  0
 23 24  1  0
 23 25  1  0
 25 26  1  0
 18 27  1  0
  7 28  2  0
 28  2  1  0
 27 14  1  0
 26 20  1  0
  1 29  1  0
  1 30  1  0
  1 31  1  0
  3 32  1  0
  5 33  1  0
  8 34  1  0
  8 35  1  0
  9 36  1  0
  9 37  1  0
 10 38  1  0
 14 39  1  0
 15 40  1  0
 15 41  1  0
 16 42  1  0
 17 43  1  0
 17 44  1  0
 17 45  1  0
 19 46  1  0
 21 47  1  0
 21 48  1  0
 22 49  1  0
 22 50  1  0
 23 51  1  0
 24 52  1  0
 25 53  1  0
 25 54  1  0
 26 55  1  0
 26 56  1  0
 27 57  1  0
M  END
>  <Energy>  (1070) 
-179.10299908928255

>  <compound_id>  (1070) 
3079

>  <target_id>  (1070) 
1

>  <reference_id>  (1070) 
130

>  <inspiration_ids>  (1070) 
[196, 130]

>  <energy_score>  (1070) 
-87.26595674203826

>  <distance_score>  (1070) 
0.9250603549879367

>  <path>  (1070) 
/opt/xchem-fragalysis-2/maxwin/BulkDock/SCRATCH/505736/C3079-P130/C3079-P130.minimised.mol

>  <scratch_subdir>  (1070) 
/opt/xchem-fragalysis-2/maxwin/BulkDock/SCRATCH/505736/C3079-P130

>  <fragmenstein_runtime>  (1070) 
3.469700336456299

>  <fragmenstein_outcome>  (1070) 
acceptable

>  <fragmenstein_mode>  (1070) 
expansion

>  <fragmenstein_error>  (1070) 


$$$$
